REMARK  15 active torsions:
REMARK  status: ('A' for Active; 'I' for Inactive)
REMARK    1  A    between atoms: O_1  and  C_18 
REMARK    2  A    between atoms: C_3  and  C_4 
REMARK    3  A    between atoms: C_3  and  C_5 
REMARK    4  A    between atoms: C_4  and  C_6 
REMARK    5  A    between atoms: C_5  and  C_7 
REMARK    6  A    between atoms: C_6  and  C_8 
REMARK    7  A    between atoms: C_7  and  C_9 
REMARK    8  A    between atoms: C_8  and  C_10 
REMARK    9  A    between atoms: C_9  and  C_11 
REMARK   10  A    between atoms: C_10  and  C_12 
REMARK   11  A    between atoms: C_11  and  C_13 
REMARK   12  A    between atoms: C_12  and  C_14 
REMARK   13  A    between atoms: C_13  and  C_15 
REMARK   14  A    between atoms: C_14  and  C_16 
REMARK   15  A    between atoms: C_16  and  C_18 
ROOT
HETATM    1  O   UNK     0      -8.744   5.991   0.000  0.00  0.00    -0.776 OA
HETATM    2  H   UNK     0      -9.278   5.291   0.000  0.00  0.00     0.167 HD
ENDROOT
BRANCH   1   3
HETATM    3  C   UNK     0      -7.531   5.839   0.000  0.00  0.00     0.139 C 
HETATM    4  O   UNK     0      -6.856   6.859   0.000  0.00  0.00    -0.650 OA
BRANCH   3   5
HETATM    5  C   UNK     0      -6.968   4.504   0.000  0.00  0.00     0.110 C 
BRANCH   5   6
HETATM    6  C   UNK     0      -5.423   4.425   0.000  0.00  0.00     0.010 C 
BRANCH   6   7
HETATM    7  C   UNK     0      -4.899   2.973   0.000  0.00  0.00     0.001 C 
BRANCH   7   8
HETATM    8  C   UNK     0      -3.357   2.925   0.000  0.00  0.00     0.000 C 
BRANCH   8   9
HETATM    9  C   UNK     0      -2.818   1.481   0.000  0.00  0.00     0.000 C 
BRANCH   9  10
HETATM   10  C   UNK     0      -1.276   1.460   0.000  0.00  0.00     0.000 C 
BRANCH  10  11
HETATM   11  C   UNK     0      -0.734   0.019   0.000  0.00  0.00     0.000 C 
BRANCH  11  12
HETATM   12  C   UNK     0       0.807   0.001   0.000  0.00  0.00     0.000 C 
BRANCH  12  13
HETATM   13  C   UNK     0       1.345  -1.442   0.000  0.00  0.00     0.000 C 
BRANCH  13  14
HETATM   14  C   UNK     0       2.886  -1.464   0.000  0.00  0.00     0.000 C 
BRANCH  14  15
HETATM   15  C   UNK     0       3.428  -2.907   0.000  0.00  0.00     0.000 C 
BRANCH  15  16
HETATM   16  C   UNK     0       4.971  -2.939   0.000  0.00  0.00     0.000 C 
BRANCH  16  17
HETATM   17  C   UNK     0       5.513  -4.385   0.000  0.00  0.00    -0.000 C 
BRANCH  17  18
HETATM   18  C   UNK     0       7.058  -4.439   0.000  0.00  0.00    -0.005 C 
HETATM   19  C   UNK     0       7.595  -5.883   0.000  0.00  0.00     0.005 C 
ENDBRANCH  17  18
ENDBRANCH  16  17
ENDBRANCH  15  16
ENDBRANCH  14  15
ENDBRANCH  13  14
ENDBRANCH  12  13
ENDBRANCH  11  12
ENDBRANCH  10  11
ENDBRANCH   9  10
ENDBRANCH   8   9
ENDBRANCH   7   8
ENDBRANCH   6   7
ENDBRANCH   5   6
ENDBRANCH   3   5
ENDBRANCH   1   3
TORSDOF 15
