MODEL 1
REMARK VINA RESULT:      -4.5      0.000      0.000
REMARK  15 active torsions:
REMARK  status: ('A' for Active; 'I' for Inactive)
REMARK    1  A    between atoms: O_1  and  C_18 
REMARK    2  A    between atoms: C_3  and  C_4 
REMARK    3  A    between atoms: C_3  and  C_5 
REMARK    4  A    between atoms: C_4  and  C_6 
REMARK    5  A    between atoms: C_5  and  C_7 
REMARK    6  A    between atoms: C_6  and  C_8 
REMARK    7  A    between atoms: C_7  and  C_9 
REMARK    8  A    between atoms: C_8  and  C_10 
REMARK    9  A    between atoms: C_9  and  C_11 
REMARK   10  A    between atoms: C_10  and  C_12 
REMARK   11  A    between atoms: C_11  and  C_13 
REMARK   12  A    between atoms: C_12  and  C_14 
REMARK   13  A    between atoms: C_13  and  C_15 
REMARK   14  A    between atoms: C_14  and  C_16 
REMARK   15  A    between atoms: C_16  and  C_18 
ROOT
HETATM    1  O   UNK     0       1.892  -1.429  -8.526  0.00  0.00    -0.776 OA
HETATM    2  H   UNK     0       1.266  -1.633  -7.941  0.00  0.00     0.167 HD
ENDROOT
BRANCH   1   3
HETATM    3  C   UNK     0       1.703  -1.615  -9.719  0.00  0.00     0.139 C 
HETATM    4  O   UNK     0       0.922  -0.853 -10.271  0.00  0.00    -0.650 OA
BRANCH   3   5
HETATM    5  C   UNK     0       2.390  -2.693 -10.402  0.00  0.00     0.110 C 
BRANCH   5   6
HETATM    6  C   UNK     0       2.407  -2.608 -11.947  0.00  0.00     0.010 C 
BRANCH   6   7
HETATM    7  C   UNK     0       2.140  -3.970 -12.623  0.00  0.00     0.001 C 
BRANCH   7   8
HETATM    8  C   UNK     0       3.420  -4.547 -13.263  0.00  0.00     0.000 C 
BRANCH   8   9
HETATM    9  C   UNK     0       4.513  -3.477 -13.449  0.00  0.00     0.000 C 
BRANCH   9  10
HETATM   10  C   UNK     0       5.368  -3.763 -14.701  0.00  0.00     0.000 C 
BRANCH  10  11
HETATM   11  C   UNK     0       4.521  -3.705 -15.985  0.00  0.00     0.000 C 
BRANCH  11  12
HETATM   12  C   UNK     0       3.270  -2.827 -15.790  0.00  0.00     0.000 C 
BRANCH  12  13
HETATM   13  C   UNK     0       2.624  -2.473 -17.143  0.00  0.00     0.000 C 
BRANCH  13  14
HETATM   14  C   UNK     0       1.803  -3.655 -17.696  0.00  0.00     0.000 C 
BRANCH  14  15
HETATM   15  C   UNK     0       1.286  -4.561 -16.561  0.00  0.00     0.000 C 
BRANCH  15  16
HETATM   16  C   UNK     0       1.262  -6.046 -16.980  0.00  0.00     0.000 C 
BRANCH  16  17
HETATM   17  C   UNK     0       2.682  -6.652 -17.019  0.00  0.00    -0.000 C 
BRANCH  17  18
HETATM   18  C   UNK     0       3.135  -7.190 -15.643  0.00  0.00    -0.005 C 
HETATM   19  C   UNK     0       4.656  -7.423 -15.575  0.00  0.00     0.005 C 
ENDBRANCH  17  18
ENDBRANCH  16  17
ENDBRANCH  15  16
ENDBRANCH  14  15
ENDBRANCH  13  14
ENDBRANCH  12  13
ENDBRANCH  11  12
ENDBRANCH  10  11
ENDBRANCH   9  10
ENDBRANCH   8   9
ENDBRANCH   7   8
ENDBRANCH   6   7
ENDBRANCH   5   6
ENDBRANCH   3   5
ENDBRANCH   1   3
TORSDOF 15
ENDMDL
MODEL 2
REMARK VINA RESULT:      -4.3      3.997      5.721
REMARK  15 active torsions:
REMARK  status: ('A' for Active; 'I' for Inactive)
REMARK    1  A    between atoms: O_1  and  C_18 
REMARK    2  A    between atoms: C_3  and  C_4 
REMARK    3  A    between atoms: C_3  and  C_5 
REMARK    4  A    between atoms: C_4  and  C_6 
REMARK    5  A    between atoms: C_5  and  C_7 
REMARK    6  A    between atoms: C_6  and  C_8 
REMARK    7  A    between atoms: C_7  and  C_9 
REMARK    8  A    between atoms: C_8  and  C_10 
REMARK    9  A    between atoms: C_9  and  C_11 
REMARK   10  A    between atoms: C_10  and  C_12 
REMARK   11  A    between atoms: C_11  and  C_13 
REMARK   12  A    between atoms: C_12  and  C_14 
REMARK   13  A    between atoms: C_13  and  C_15 
REMARK   14  A    between atoms: C_14  and  C_16 
REMARK   15  A    between atoms: C_16  and  C_18 
ROOT
HETATM    1  O   UNK     0       4.517  -9.148 -16.466  0.00  0.00    -0.776 OA
HETATM    2  H   UNK     0       5.188  -8.625 -16.694  0.00  0.00     0.167 HD
ENDROOT
BRANCH   1   3
HETATM    3  C   UNK     0       3.638  -8.733 -15.725  0.00  0.00     0.139 C 
HETATM    4  O   UNK     0       2.518  -9.191 -15.900  0.00  0.00    -0.650 OA
BRANCH   3   5
HETATM    5  C   UNK     0       3.953  -7.750 -14.707  0.00  0.00     0.110 C 
BRANCH   5   6
HETATM    6  C   UNK     0       5.110  -6.780 -15.044  0.00  0.00     0.010 C 
BRANCH   6   7
HETATM    7  C   UNK     0       5.695  -6.091 -13.792  0.00  0.00     0.001 C 
BRANCH   7   8
HETATM    8  C   UNK     0       5.853  -4.571 -14.001  0.00  0.00     0.000 C 
BRANCH   8   9
HETATM    9  C   UNK     0       5.002  -3.753 -13.010  0.00  0.00     0.000 C 
BRANCH   9  10
HETATM   10  C   UNK     0       3.682  -3.288 -13.657  0.00  0.00     0.000 C 
BRANCH  10  11
HETATM   11  C   UNK     0       2.527  -4.254 -13.334  0.00  0.00     0.000 C 
BRANCH  11  12
HETATM   12  C   UNK     0       1.894  -4.819 -14.621  0.00  0.00     0.000 C 
BRANCH  12  13
HETATM   13  C   UNK     0       2.553  -4.215 -15.875  0.00  0.00     0.000 C 
BRANCH  13  14
HETATM   14  C   UNK     0       1.712  -4.492 -17.136  0.00  0.00     0.000 C 
BRANCH  14  15
HETATM   15  C   UNK     0       1.452  -6.000 -17.318  0.00  0.00     0.000 C 
BRANCH  15  16
HETATM   16  C   UNK     0      -0.040  -6.295 -17.585  0.00  0.00     0.000 C 
BRANCH  16  17
HETATM   17  C   UNK     0      -0.961  -5.301 -16.845  0.00  0.00    -0.000 C 
BRANCH  17  18
HETATM   18  C   UNK     0      -1.984  -4.627 -17.788  0.00  0.00    -0.005 C 
HETATM   19  C   UNK     0      -3.356  -5.328 -17.762  0.00  0.00     0.005 C 
ENDBRANCH  17  18
ENDBRANCH  16  17
ENDBRANCH  15  16
ENDBRANCH  14  15
ENDBRANCH  13  14
ENDBRANCH  12  13
ENDBRANCH  11  12
ENDBRANCH  10  11
ENDBRANCH   9  10
ENDBRANCH   8   9
ENDBRANCH   7   8
ENDBRANCH   6   7
ENDBRANCH   5   6
ENDBRANCH   3   5
ENDBRANCH   1   3
TORSDOF 15
ENDMDL
MODEL 3
REMARK VINA RESULT:      -4.3      3.629      6.160
REMARK  15 active torsions:
REMARK  status: ('A' for Active; 'I' for Inactive)
REMARK    1  A    between atoms: O_1  and  C_18 
REMARK    2  A    between atoms: C_3  and  C_4 
REMARK    3  A    between atoms: C_3  and  C_5 
REMARK    4  A    between atoms: C_4  and  C_6 
REMARK    5  A    between atoms: C_5  and  C_7 
REMARK    6  A    between atoms: C_6  and  C_8 
REMARK    7  A    between atoms: C_7  and  C_9 
REMARK    8  A    between atoms: C_8  and  C_10 
REMARK    9  A    between atoms: C_9  and  C_11 
REMARK   10  A    between atoms: C_10  and  C_12 
REMARK   11  A    between atoms: C_11  and  C_13 
REMARK   12  A    between atoms: C_12  and  C_14 
REMARK   13  A    between atoms: C_13  and  C_15 
REMARK   14  A    between atoms: C_14  and  C_16 
REMARK   15  A    between atoms: C_16  and  C_18 
ROOT
HETATM    1  O   UNK     0       4.632  -8.903 -16.233  0.00  0.00    -0.776 OA
HETATM    2  H   UNK     0       4.980  -9.201 -15.481  0.00  0.00     0.167 HD
ENDROOT
BRANCH   1   3
HETATM    3  C   UNK     0       3.510  -8.419 -16.241  0.00  0.00     0.139 C 
HETATM    4  O   UNK     0       2.719  -8.866 -15.422  0.00  0.00    -0.650 OA
BRANCH   3   5
HETATM    5  C   UNK     0       3.179  -7.372 -17.187  0.00  0.00     0.110 C 
BRANCH   5   6
HETATM    6  C   UNK     0       1.889  -6.573 -16.883  0.00  0.00     0.010 C 
BRANCH   6   7
HETATM    7  C   UNK     0       2.173  -5.220 -16.198  0.00  0.00     0.001 C 
BRANCH   7   8
HETATM    8  C   UNK     0       1.764  -4.032 -17.095  0.00  0.00     0.000 C 
BRANCH   8   9
HETATM    9  C   UNK     0       2.737  -2.843 -16.967  0.00  0.00     0.000 C 
BRANCH   9  10
HETATM   10  C   UNK     0       3.945  -3.202 -16.078  0.00  0.00     0.000 C 
BRANCH  10  11
HETATM   11  C   UNK     0       5.184  -3.542 -16.925  0.00  0.00     0.000 C 
BRANCH  11  12
HETATM   12  C   UNK     0       5.640  -4.995 -16.691  0.00  0.00     0.000 C 
BRANCH  12  13
HETATM   13  C   UNK     0       6.964  -5.042 -15.905  0.00  0.00     0.000 C 
BRANCH  13  14
HETATM   14  C   UNK     0       6.715  -4.956 -14.387  0.00  0.00     0.000 C 
BRANCH  14  15
HETATM   15  C   UNK     0       5.643  -5.966 -13.934  0.00  0.00     0.000 C 
BRANCH  15  16
HETATM   16  C   UNK     0       4.415  -5.261 -13.321  0.00  0.00     0.000 C 
BRANCH  16  17
HETATM   17  C   UNK     0       4.750  -3.825 -12.861  0.00  0.00    -0.000 C 
BRANCH  17  18
HETATM   18  C   UNK     0       3.501  -3.048 -12.385  0.00  0.00    -0.005 C 
HETATM   19  C   UNK     0       2.189  -3.782 -12.723  0.00  0.00     0.005 C 
ENDBRANCH  17  18
ENDBRANCH  16  17
ENDBRANCH  15  16
ENDBRANCH  14  15
ENDBRANCH  13  14
ENDBRANCH  12  13
ENDBRANCH  11  12
ENDBRANCH  10  11
ENDBRANCH   9  10
ENDBRANCH   8   9
ENDBRANCH   7   8
ENDBRANCH   6   7
ENDBRANCH   5   6
ENDBRANCH   3   5
ENDBRANCH   1   3
TORSDOF 15
ENDMDL
MODEL 4
REMARK VINA RESULT:      -4.2      3.510      5.578
REMARK  15 active torsions:
REMARK  status: ('A' for Active; 'I' for Inactive)
REMARK    1  A    between atoms: O_1  and  C_18 
REMARK    2  A    between atoms: C_3  and  C_4 
REMARK    3  A    between atoms: C_3  and  C_5 
REMARK    4  A    between atoms: C_4  and  C_6 
REMARK    5  A    between atoms: C_5  and  C_7 
REMARK    6  A    between atoms: C_6  and  C_8 
REMARK    7  A    between atoms: C_7  and  C_9 
REMARK    8  A    between atoms: C_8  and  C_10 
REMARK    9  A    between atoms: C_9  and  C_11 
REMARK   10  A    between atoms: C_10  and  C_12 
REMARK   11  A    between atoms: C_11  and  C_13 
REMARK   12  A    between atoms: C_12  and  C_14 
REMARK   13  A    between atoms: C_13  and  C_15 
REMARK   14  A    between atoms: C_14  and  C_16 
REMARK   15  A    between atoms: C_16  and  C_18 
ROOT
HETATM    1  O   UNK     0       5.244  -2.882 -12.078  0.00  0.00    -0.776 OA
HETATM    2  H   UNK     0       5.139  -3.187 -11.259  0.00  0.00     0.167 HD
ENDROOT
BRANCH   1   3
HETATM    3  C   UNK     0       4.960  -3.585 -13.037  0.00  0.00     0.139 C 
HETATM    4  O   UNK     0       5.821  -3.704 -13.898  0.00  0.00    -0.650 OA
BRANCH   3   5
HETATM    5  C   UNK     0       3.661  -4.222 -13.108  0.00  0.00     0.110 C 
BRANCH   5   6
HETATM    6  C   UNK     0       3.552  -5.423 -14.078  0.00  0.00     0.010 C 
BRANCH   6   7
HETATM    7  C   UNK     0       2.401  -5.267 -15.095  0.00  0.00     0.001 C 
BRANCH   7   8
HETATM    8  C   UNK     0       2.874  -4.566 -16.385  0.00  0.00     0.000 C 
BRANCH   8   9
HETATM    9  C   UNK     0       1.698  -4.003 -17.208  0.00  0.00     0.000 C 
BRANCH   9  10
HETATM   10  C   UNK     0       1.108  -5.076 -18.145  0.00  0.00     0.000 C 
BRANCH  10  11
HETATM   11  C   UNK     0      -0.172  -4.574 -18.839  0.00  0.00     0.000 C 
BRANCH  11  12
HETATM   12  C   UNK     0      -1.014  -3.697 -17.891  0.00  0.00     0.000 C 
BRANCH  12  13
HETATM   13  C   UNK     0      -2.431  -3.477 -18.452  0.00  0.00     0.000 C 
BRANCH  13  14
HETATM   14  C   UNK     0      -2.705  -1.982 -18.708  0.00  0.00     0.000 C 
BRANCH  14  15
HETATM   15  C   UNK     0      -1.756  -1.088 -17.886  0.00  0.00     0.000 C 
BRANCH  15  16
HETATM   16  C   UNK     0      -1.494   0.263 -18.584  0.00  0.00     0.000 C 
BRANCH  16  17
HETATM   17  C   UNK     0       0.008   0.622 -18.591  0.00  0.00    -0.000 C 
BRANCH  17  18
HETATM   18  C   UNK     0       0.915  -0.623 -18.451  0.00  0.00    -0.005 C 
HETATM   19  C   UNK     0       1.362  -1.180 -19.816  0.00  0.00     0.005 C 
ENDBRANCH  17  18
ENDBRANCH  16  17
ENDBRANCH  15  16
ENDBRANCH  14  15
ENDBRANCH  13  14
ENDBRANCH  12  13
ENDBRANCH  11  12
ENDBRANCH  10  11
ENDBRANCH   9  10
ENDBRANCH   8   9
ENDBRANCH   7   8
ENDBRANCH   6   7
ENDBRANCH   5   6
ENDBRANCH   3   5
ENDBRANCH   1   3
TORSDOF 15
ENDMDL
MODEL 5
REMARK VINA RESULT:      -4.1      3.831      5.833
REMARK  15 active torsions:
REMARK  status: ('A' for Active; 'I' for Inactive)
REMARK    1  A    between atoms: O_1  and  C_18 
REMARK    2  A    between atoms: C_3  and  C_4 
REMARK    3  A    between atoms: C_3  and  C_5 
REMARK    4  A    between atoms: C_4  and  C_6 
REMARK    5  A    between atoms: C_5  and  C_7 
REMARK    6  A    between atoms: C_6  and  C_8 
REMARK    7  A    between atoms: C_7  and  C_9 
REMARK    8  A    between atoms: C_8  and  C_10 
REMARK    9  A    between atoms: C_9  and  C_11 
REMARK   10  A    between atoms: C_10  and  C_12 
REMARK   11  A    between atoms: C_11  and  C_13 
REMARK   12  A    between atoms: C_12  and  C_14 
REMARK   13  A    between atoms: C_13  and  C_15 
REMARK   14  A    between atoms: C_14  and  C_16 
REMARK   15  A    between atoms: C_16  and  C_18 
ROOT
HETATM    1  O   UNK     0       6.093  -7.275 -14.283  0.00  0.00    -0.776 OA
HETATM    2  H   UNK     0       6.848  -7.573 -13.943  0.00  0.00     0.167 HD
ENDROOT
BRANCH   1   3
HETATM    3  C   UNK     0       5.365  -6.548 -13.622  0.00  0.00     0.139 C 
HETATM    4  O   UNK     0       4.591  -7.106 -12.857  0.00  0.00    -0.650 OA
BRANCH   3   5
HETATM    5  C   UNK     0       5.451  -5.110 -13.770  0.00  0.00     0.110 C 
BRANCH   5   6
HETATM    6  C   UNK     0       4.402  -4.288 -12.984  0.00  0.00     0.010 C 
BRANCH   6   7
HETATM    7  C   UNK     0       3.197  -3.869 -13.853  0.00  0.00     0.001 C 
BRANCH   7   8
HETATM    8  C   UNK     0       3.648  -3.322 -15.223  0.00  0.00     0.000 C 
BRANCH   8   9
HETATM    9  C   UNK     0       2.772  -3.848 -16.377  0.00  0.00     0.000 C 
BRANCH   9  10
HETATM   10  C   UNK     0       2.630  -5.382 -16.318  0.00  0.00     0.000 C 
BRANCH  10  11
HETATM   11  C   UNK     0       1.381  -5.861 -17.081  0.00  0.00     0.000 C 
BRANCH  11  12
HETATM   12  C   UNK     0       0.128  -5.074 -16.652  0.00  0.00     0.000 C 
BRANCH  12  13
HETATM   13  C   UNK     0      -0.619  -4.511 -17.875  0.00  0.00     0.000 C 
BRANCH  13  14
HETATM   14  C   UNK     0      -0.146  -3.083 -18.211  0.00  0.00     0.000 C 
BRANCH  14  15
HETATM   15  C   UNK     0      -1.322  -2.188 -18.648  0.00  0.00     0.000 C 
BRANCH  15  16
HETATM   16  C   UNK     0      -1.405  -0.899 -17.804  0.00  0.00     0.000 C 
BRANCH  16  17
HETATM   17  C   UNK     0      -0.339   0.133 -18.232  0.00  0.00    -0.000 C 
BRANCH  17  18
HETATM   18  C   UNK     0      -0.532   0.617 -19.687  0.00  0.00    -0.005 C 
HETATM   19  C   UNK     0       0.583   0.115 -20.625  0.00  0.00     0.005 C 
ENDBRANCH  17  18
ENDBRANCH  16  17
ENDBRANCH  15  16
ENDBRANCH  14  15
ENDBRANCH  13  14
ENDBRANCH  12  13
ENDBRANCH  11  12
ENDBRANCH  10  11
ENDBRANCH   9  10
ENDBRANCH   8   9
ENDBRANCH   7   8
ENDBRANCH   6   7
ENDBRANCH   5   6
ENDBRANCH   3   5
ENDBRANCH   1   3
TORSDOF 15
ENDMDL
MODEL 6
REMARK VINA RESULT:      -4.0      4.141      6.871
REMARK  15 active torsions:
REMARK  status: ('A' for Active; 'I' for Inactive)
REMARK    1  A    between atoms: O_1  and  C_18 
REMARK    2  A    between atoms: C_3  and  C_4 
REMARK    3  A    between atoms: C_3  and  C_5 
REMARK    4  A    between atoms: C_4  and  C_6 
REMARK    5  A    between atoms: C_5  and  C_7 
REMARK    6  A    between atoms: C_6  and  C_8 
REMARK    7  A    between atoms: C_7  and  C_9 
REMARK    8  A    between atoms: C_8  and  C_10 
REMARK    9  A    between atoms: C_9  and  C_11 
REMARK   10  A    between atoms: C_10  and  C_12 
REMARK   11  A    between atoms: C_11  and  C_13 
REMARK   12  A    between atoms: C_12  and  C_14 
REMARK   13  A    between atoms: C_13  and  C_15 
REMARK   14  A    between atoms: C_14  and  C_16 
REMARK   15  A    between atoms: C_16  and  C_18 
ROOT
HETATM    1  O   UNK     0       0.884   0.657 -21.373  0.00  0.00    -0.776 OA
HETATM    2  H   UNK     0       1.550   0.093 -21.490  0.00  0.00     0.167 HD
ENDROOT
BRANCH   1   3
HETATM    3  C   UNK     0       0.174   0.573 -20.382  0.00  0.00     0.139 C 
HETATM    4  O   UNK     0      -1.012   0.828 -20.540  0.00  0.00    -0.650 OA
BRANCH   3   5
HETATM    5  C   UNK     0       0.749   0.188 -19.109  0.00  0.00     0.110 C 
BRANCH   5   6
HETATM    6  C   UNK     0      -0.200  -0.553 -18.138  0.00  0.00     0.010 C 
BRANCH   6   7
HETATM    7  C   UNK     0       0.169  -2.042 -17.962  0.00  0.00     0.001 C 
BRANCH   7   8
HETATM    8  C   UNK     0       1.687  -2.231 -17.765  0.00  0.00     0.000 C 
BRANCH   8   9
HETATM    9  C   UNK     0       2.091  -3.719 -17.740  0.00  0.00     0.000 C 
BRANCH   9  10
HETATM   10  C   UNK     0       1.039  -4.572 -17.003  0.00  0.00     0.000 C 
BRANCH  10  11
HETATM   11  C   UNK     0       1.411  -6.065 -17.026  0.00  0.00     0.000 C 
BRANCH  11  12
HETATM   12  C   UNK     0       2.813  -6.284 -17.626  0.00  0.00     0.000 C 
BRANCH  12  13
HETATM   13  C   UNK     0       3.649  -7.236 -16.750  0.00  0.00     0.000 C 
BRANCH  13  14
HETATM   14  C   UNK     0       4.673  -6.459 -15.900  0.00  0.00     0.000 C 
BRANCH  14  15
HETATM   15  C   UNK     0       4.016  -5.851 -14.645  0.00  0.00     0.000 C 
BRANCH  15  16
HETATM   16  C   UNK     0       4.241  -4.326 -14.563  0.00  0.00     0.000 C 
BRANCH  16  17
HETATM   17  C   UNK     0       3.053  -3.608 -13.886  0.00  0.00    -0.000 C 
BRANCH  17  18
HETATM   18  C   UNK     0       3.463  -2.880 -12.586  0.00  0.00    -0.005 C 
HETATM   19  C   UNK     0       2.278  -2.688 -11.621  0.00  0.00     0.005 C 
ENDBRANCH  17  18
ENDBRANCH  16  17
ENDBRANCH  15  16
ENDBRANCH  14  15
ENDBRANCH  13  14
ENDBRANCH  12  13
ENDBRANCH  11  12
ENDBRANCH  10  11
ENDBRANCH   9  10
ENDBRANCH   8   9
ENDBRANCH   7   8
ENDBRANCH   6   7
ENDBRANCH   5   6
ENDBRANCH   3   5
ENDBRANCH   1   3
TORSDOF 15
ENDMDL
MODEL 7
REMARK VINA RESULT:      -3.8      4.017      5.992
REMARK  15 active torsions:
REMARK  status: ('A' for Active; 'I' for Inactive)
REMARK    1  A    between atoms: O_1  and  C_18 
REMARK    2  A    between atoms: C_3  and  C_4 
REMARK    3  A    between atoms: C_3  and  C_5 
REMARK    4  A    between atoms: C_4  and  C_6 
REMARK    5  A    between atoms: C_5  and  C_7 
REMARK    6  A    between atoms: C_6  and  C_8 
REMARK    7  A    between atoms: C_7  and  C_9 
REMARK    8  A    between atoms: C_8  and  C_10 
REMARK    9  A    between atoms: C_9  and  C_11 
REMARK   10  A    between atoms: C_10  and  C_12 
REMARK   11  A    between atoms: C_11  and  C_13 
REMARK   12  A    between atoms: C_12  and  C_14 
REMARK   13  A    between atoms: C_13  and  C_15 
REMARK   14  A    between atoms: C_14  and  C_16 
REMARK   15  A    between atoms: C_16  and  C_18 
ROOT
HETATM    1  O   UNK     0       5.872  -7.277 -14.924  0.00  0.00    -0.776 OA
HETATM    2  H   UNK     0       5.425  -7.568 -15.625  0.00  0.00     0.167 HD
ENDROOT
BRANCH   1   3
HETATM    3  C   UNK     0       6.285  -6.127 -14.893  0.00  0.00     0.139 C 
HETATM    4  O   UNK     0       6.799  -5.706 -15.920  0.00  0.00    -0.650 OA
BRANCH   3   5
HETATM    5  C   UNK     0       6.151  -5.342 -13.682  0.00  0.00     0.110 C 
BRANCH   5   6
HETATM    6  C   UNK     0       5.604  -3.907 -13.867  0.00  0.00     0.010 C 
BRANCH   6   7
HETATM    7  C   UNK     0       4.613  -3.497 -12.758  0.00  0.00     0.001 C 
BRANCH   7   8
HETATM    8  C   UNK     0       3.148  -3.670 -13.211  0.00  0.00     0.000 C 
BRANCH   8   9
HETATM    9  C   UNK     0       3.025  -3.824 -14.740  0.00  0.00     0.000 C 
BRANCH   9  10
HETATM   10  C   UNK     0       2.172  -5.054 -15.111  0.00  0.00     0.000 C 
BRANCH  10  11
HETATM   11  C   UNK     0       1.310  -4.785 -16.357  0.00  0.00     0.000 C 
BRANCH  11  12
HETATM   12  C   UNK     0       2.080  -3.953 -17.401  0.00  0.00     0.000 C 
BRANCH  12  13
HETATM   13  C   UNK     0       1.114  -3.193 -18.328  0.00  0.00     0.000 C 
BRANCH  13  14
HETATM   14  C   UNK     0       1.878  -2.428 -19.427  0.00  0.00     0.000 C 
BRANCH  14  15
HETATM   15  C   UNK     0       0.933  -1.527 -20.246  0.00  0.00     0.000 C 
BRANCH  15  16
HETATM   16  C   UNK     0       1.251  -0.031 -20.043  0.00  0.00     0.000 C 
BRANCH  16  17
HETATM   17  C   UNK     0       0.217   0.654 -19.122  0.00  0.00    -0.000 C 
BRANCH  17  18
HETATM   18  C   UNK     0      -1.119  -0.121 -19.051  0.00  0.00    -0.005 C 
HETATM   19  C   UNK     0      -1.466  -0.562 -17.617  0.00  0.00     0.005 C 
ENDBRANCH  17  18
ENDBRANCH  16  17
ENDBRANCH  15  16
ENDBRANCH  14  15
ENDBRANCH  13  14
ENDBRANCH  12  13
ENDBRANCH  11  12
ENDBRANCH  10  11
ENDBRANCH   9  10
ENDBRANCH   8   9
ENDBRANCH   7   8
ENDBRANCH   6   7
ENDBRANCH   5   6
ENDBRANCH   3   5
ENDBRANCH   1   3
TORSDOF 15
ENDMDL
MODEL 8
REMARK VINA RESULT:      -3.8      4.518      7.783
REMARK  15 active torsions:
REMARK  status: ('A' for Active; 'I' for Inactive)
REMARK    1  A    between atoms: O_1  and  C_18 
REMARK    2  A    between atoms: C_3  and  C_4 
REMARK    3  A    between atoms: C_3  and  C_5 
REMARK    4  A    between atoms: C_4  and  C_6 
REMARK    5  A    between atoms: C_5  and  C_7 
REMARK    6  A    between atoms: C_6  and  C_8 
REMARK    7  A    between atoms: C_7  and  C_9 
REMARK    8  A    between atoms: C_8  and  C_10 
REMARK    9  A    between atoms: C_9  and  C_11 
REMARK   10  A    between atoms: C_10  and  C_12 
REMARK   11  A    between atoms: C_11  and  C_13 
REMARK   12  A    between atoms: C_12  and  C_14 
REMARK   13  A    between atoms: C_13  and  C_15 
REMARK   14  A    between atoms: C_14  and  C_16 
REMARK   15  A    between atoms: C_16  and  C_18 
ROOT
HETATM    1  O   UNK     0       1.783  -3.714 -22.831  0.00  0.00    -0.776 OA
HETATM    2  H   UNK     0       1.148  -3.878 -23.418  0.00  0.00     0.167 HD
ENDROOT
BRANCH   1   3
HETATM    3  C   UNK     0       1.570  -2.965 -21.888  0.00  0.00     0.139 C 
HETATM    4  O   UNK     0       1.206  -1.831 -22.167  0.00  0.00    -0.650 OA
BRANCH   3   5
HETATM    5  C   UNK     0       1.753  -3.438 -20.531  0.00  0.00     0.110 C 
BRANCH   5   6
HETATM    6  C   UNK     0       1.888  -2.341 -19.448  0.00  0.00     0.010 C 
BRANCH   6   7
HETATM    7  C   UNK     0       0.950  -2.572 -18.244  0.00  0.00     0.001 C 
BRANCH   7   8
HETATM    8  C   UNK     0       0.018  -3.780 -18.473  0.00  0.00     0.000 C 
BRANCH   8   9
HETATM    9  C   UNK     0      -0.098  -4.673 -17.222  0.00  0.00     0.000 C 
BRANCH   9  10
HETATM   10  C   UNK     0       0.800  -5.921 -17.341  0.00  0.00     0.000 C 
BRANCH  10  11
HETATM   11  C   UNK     0       2.194  -5.671 -16.737  0.00  0.00     0.000 C 
BRANCH  11  12
HETATM   12  C   UNK     0       2.094  -5.230 -15.264  0.00  0.00     0.000 C 
BRANCH  12  13
HETATM   13  C   UNK     0       3.149  -4.158 -14.933  0.00  0.00     0.000 C 
BRANCH  13  14
HETATM   14  C   UNK     0       4.132  -4.655 -13.856  0.00  0.00     0.000 C 
BRANCH  14  15
HETATM   15  C   UNK     0       4.264  -3.640 -12.703  0.00  0.00     0.000 C 
BRANCH  15  16
HETATM   16  C   UNK     0       3.066  -2.668 -12.656  0.00  0.00     0.000 C 
BRANCH  16  17
HETATM   17  C   UNK     0       2.077  -3.033 -11.528  0.00  0.00    -0.000 C 
BRANCH  17  18
HETATM   18  C   UNK     0       2.391  -2.299 -10.204  0.00  0.00    -0.005 C 
HETATM   19  C   UNK     0       1.268  -1.329  -9.790  0.00  0.00     0.005 C 
ENDBRANCH  17  18
ENDBRANCH  16  17
ENDBRANCH  15  16
ENDBRANCH  14  15
ENDBRANCH  13  14
ENDBRANCH  12  13
ENDBRANCH  11  12
ENDBRANCH  10  11
ENDBRANCH   9  10
ENDBRANCH   8   9
ENDBRANCH   7   8
ENDBRANCH   6   7
ENDBRANCH   5   6
ENDBRANCH   3   5
ENDBRANCH   1   3
TORSDOF 15
ENDMDL
MODEL 9
REMARK VINA RESULT:      -3.8      4.814      7.642
REMARK  15 active torsions:
REMARK  status: ('A' for Active; 'I' for Inactive)
REMARK    1  A    between atoms: O_1  and  C_18 
REMARK    2  A    between atoms: C_3  and  C_4 
REMARK    3  A    between atoms: C_3  and  C_5 
REMARK    4  A    between atoms: C_4  and  C_6 
REMARK    5  A    between atoms: C_5  and  C_7 
REMARK    6  A    between atoms: C_6  and  C_8 
REMARK    7  A    between atoms: C_7  and  C_9 
REMARK    8  A    between atoms: C_8  and  C_10 
REMARK    9  A    between atoms: C_9  and  C_11 
REMARK   10  A    between atoms: C_10  and  C_12 
REMARK   11  A    between atoms: C_11  and  C_13 
REMARK   12  A    between atoms: C_12  and  C_14 
REMARK   13  A    between atoms: C_13  and  C_15 
REMARK   14  A    between atoms: C_14  and  C_16 
REMARK   15  A    between atoms: C_16  and  C_18 
ROOT
HETATM    1  O   UNK     0       0.818  -2.582 -21.555  0.00  0.00    -0.776 OA
HETATM    2  H   UNK     0       0.558  -2.999 -22.286  0.00  0.00     0.167 HD
ENDROOT
BRANCH   1   3
HETATM    3  C   UNK     0       0.826  -1.360 -21.516  0.00  0.00     0.139 C 
HETATM    4  O   UNK     0       0.370  -0.782 -22.493  0.00  0.00    -0.650 OA
BRANCH   3   5
HETATM    5  C   UNK     0       1.356  -0.676 -20.354  0.00  0.00     0.110 C 
BRANCH   5   6
HETATM    6  C   UNK     0       0.502   0.495 -19.814  0.00  0.00     0.010 C 
BRANCH   6   7
HETATM    7  C   UNK     0      -0.928   0.062 -19.425  0.00  0.00     0.001 C 
BRANCH   7   8
HETATM    8  C   UNK     0      -0.993  -0.439 -17.967  0.00  0.00     0.000 C 
BRANCH   8   9
HETATM    9  C   UNK     0      -1.755  -1.773 -17.841  0.00  0.00     0.000 C 
BRANCH   9  10
HETATM   10  C   UNK     0      -1.098  -2.874 -18.698  0.00  0.00     0.000 C 
BRANCH  10  11
HETATM   11  C   UNK     0       0.197  -3.394 -18.048  0.00  0.00     0.000 C 
BRANCH  11  12
HETATM   12  C   UNK     0      -0.034  -4.745 -17.343  0.00  0.00     0.000 C 
BRANCH  12  13
HETATM   13  C   UNK     0       1.020  -4.986 -16.247  0.00  0.00     0.000 C 
BRANCH  13  14
HETATM   14  C   UNK     0       2.439  -5.063 -16.843  0.00  0.00     0.000 C 
BRANCH  14  15
HETATM   15  C   UNK     0       3.515  -5.049 -15.739  0.00  0.00     0.000 C 
BRANCH  15  16
HETATM   16  C   UNK     0       3.382  -3.811 -14.827  0.00  0.00     0.000 C 
BRANCH  16  17
HETATM   17  C   UNK     0       3.358  -4.202 -13.333  0.00  0.00    -0.000 C 
BRANCH  17  18
HETATM   18  C   UNK     0       2.079  -3.716 -12.614  0.00  0.00    -0.005 C 
HETATM   19  C   UNK     0       2.380  -2.664 -11.528  0.00  0.00     0.005 C 
ENDBRANCH  17  18
ENDBRANCH  16  17
ENDBRANCH  15  16
ENDBRANCH  14  15
ENDBRANCH  13  14
ENDBRANCH  12  13
ENDBRANCH  11  12
ENDBRANCH  10  11
ENDBRANCH   9  10
ENDBRANCH   8   9
ENDBRANCH   7   8
ENDBRANCH   6   7
ENDBRANCH   5   6
ENDBRANCH   3   5
ENDBRANCH   1   3
TORSDOF 15
ENDMDL
