MODEL 1
REMARK VINA RESULT:      -5.4      0.000      0.000
REMARK  15 active torsions:
REMARK  status: ('A' for Active; 'I' for Inactive)
REMARK    1  A    between atoms: O_1  and  C_22 
REMARK    2  A    between atoms: C_3  and  C_4 
REMARK    3  A    between atoms: C_3  and  C_5 
REMARK    4  A    between atoms: C_4  and  C_6 
REMARK    5  A    between atoms: C_5  and  C_7 
REMARK    6  A    between atoms: C_9  and  C_10 
REMARK    7  A    between atoms: C_9  and  C_13 
REMARK    8  A    between atoms: C_10  and  C_14 
REMARK    9  A    between atoms: C_11  and  C_12 
REMARK   10  A    between atoms: C_12  and  C_16 
REMARK   11  A    between atoms: C_13  and  C_22 
REMARK   12  A    between atoms: C_15  and  C_17 
REMARK   13  A    between atoms: C_15  and  C_20 
REMARK   14  A    between atoms: C_18  and  C_19 
REMARK   15  A    between atoms: C_18  and  C_21 
ROOT
HETATM    1  O   UNK     0       0.927  -0.747  -9.725  0.00  0.00    -0.776 OA
HETATM    2  H   UNK     0       0.104  -0.701 -10.035  0.00  0.00     0.167 HD
ENDROOT
BRANCH   1   3
HETATM    3  C   UNK     0       1.603  -1.755  -9.888  0.00  0.00     0.139 C 
HETATM    4  O   UNK     0       1.767  -2.466  -8.908  0.00  0.00    -0.650 OA
BRANCH   3   5
HETATM    5  C   UNK     0       2.148  -2.063 -11.195  0.00  0.00     0.110 C 
BRANCH   5   6
HETATM    6  C   UNK     0       2.083  -3.516 -11.738  0.00  0.00     0.014 C 
BRANCH   6   7
HETATM    7  C   UNK     0       2.706  -3.707 -13.146  0.00  0.00     0.027 C 
BRANCH   7   8
HETATM    8  C   UNK     0       4.131  -3.414 -13.206  0.00  0.00    -0.030 C 
HETATM    9  C   UNK     0       5.144  -4.287 -13.350  0.00  0.00    -0.027 C 
BRANCH   9  10
HETATM   10  C   UNK     0       5.003  -5.729 -13.477  0.00  0.00     0.053 C 
BRANCH  10  11
HETATM   11  C   UNK     0       6.156  -6.440 -14.021  0.00  0.00    -0.027 C 
HETATM   12  C   UNK     0       6.472  -6.605 -15.320  0.00  0.00    -0.027 C 
BRANCH  12  13
HETATM   13  C   UNK     0       5.675  -6.099 -16.424  0.00  0.00     0.053 C 
BRANCH  13  14
HETATM   14  C   UNK     0       4.603  -6.889 -17.002  0.00  0.00    -0.027 C 
HETATM   15  C   UNK     0       3.295  -6.589 -16.892  0.00  0.00    -0.027 C 
BRANCH  15  16
HETATM   16  C   UNK     0       2.708  -5.444 -16.206  0.00  0.00     0.053 C 
BRANCH  16  17
HETATM   17  C   UNK     0       1.254  -5.369 -16.231  0.00  0.00    -0.027 C 
HETATM   18  C   UNK     0       0.523  -4.633 -17.086  0.00  0.00    -0.030 C 
BRANCH  18  19
HETATM   19  C   UNK     0       1.009  -3.775 -18.154  0.00  0.00     0.027 C 
BRANCH  19  20
HETATM   20  C   UNK     0       0.315  -2.389 -18.214  0.00  0.00     0.004 C 
BRANCH  20  21
HETATM   21  C   UNK     0       1.281  -1.178 -18.134  0.00  0.00    -0.000 C 
BRANCH  21  22
HETATM   22  C   UNK     0       0.913   0.083 -18.955  0.00  0.00    -0.005 C 
HETATM   23  C   UNK     0      -0.505   0.617 -18.662  0.00  0.00     0.005 C 
ENDBRANCH  21  22
ENDBRANCH  20  21
ENDBRANCH  19  20
ENDBRANCH  18  19
ENDBRANCH  16  17
ENDBRANCH  15  16
ENDBRANCH  13  14
ENDBRANCH  12  13
ENDBRANCH  10  11
ENDBRANCH   9  10
ENDBRANCH   7   8
ENDBRANCH   6   7
ENDBRANCH   5   6
ENDBRANCH   3   5
ENDBRANCH   1   3
TORSDOF 15
ENDMDL
MODEL 2
REMARK VINA RESULT:      -5.1      3.701      7.473
REMARK  15 active torsions:
REMARK  status: ('A' for Active; 'I' for Inactive)
REMARK    1  A    between atoms: O_1  and  C_22 
REMARK    2  A    between atoms: C_3  and  C_4 
REMARK    3  A    between atoms: C_3  and  C_5 
REMARK    4  A    between atoms: C_4  and  C_6 
REMARK    5  A    between atoms: C_5  and  C_7 
REMARK    6  A    between atoms: C_9  and  C_10 
REMARK    7  A    between atoms: C_9  and  C_13 
REMARK    8  A    between atoms: C_10  and  C_14 
REMARK    9  A    between atoms: C_11  and  C_12 
REMARK   10  A    between atoms: C_12  and  C_16 
REMARK   11  A    between atoms: C_13  and  C_22 
REMARK   12  A    between atoms: C_15  and  C_17 
REMARK   13  A    between atoms: C_15  and  C_20 
REMARK   14  A    between atoms: C_18  and  C_19 
REMARK   15  A    between atoms: C_18  and  C_21 
ROOT
HETATM    1  O   UNK     0       2.063  -0.337 -20.228  0.00  0.00    -0.776 OA
HETATM    2  H   UNK     0       2.589  -0.802 -19.697  0.00  0.00     0.167 HD
ENDROOT
BRANCH   1   3
HETATM    3  C   UNK     0       1.039   0.181 -19.799  0.00  0.00     0.139 C 
HETATM    4  O   UNK     0       0.487   0.986 -20.535  0.00  0.00    -0.650 OA
BRANCH   3   5
HETATM    5  C   UNK     0       0.530  -0.182 -18.493  0.00  0.00     0.110 C 
BRANCH   5   6
HETATM    6  C   UNK     0      -0.997  -0.145 -18.218  0.00  0.00     0.014 C 
BRANCH   6   7
HETATM    7  C   UNK     0      -1.595  -1.485 -17.714  0.00  0.00     0.027 C 
BRANCH   7   8
HETATM    8  C   UNK     0      -2.570  -2.076 -18.619  0.00  0.00    -0.030 C 
HETATM    9  C   UNK     0      -2.664  -3.362 -18.999  0.00  0.00    -0.027 C 
BRANCH   9  10
HETATM   10  C   UNK     0      -1.787  -4.437 -18.563  0.00  0.00     0.053 C 
BRANCH  10  11
HETATM   11  C   UNK     0      -1.146  -5.210 -19.622  0.00  0.00    -0.027 C 
HETATM   12  C   UNK     0      -0.030  -4.889 -20.303  0.00  0.00    -0.027 C 
BRANCH  12  13
HETATM   13  C   UNK     0       0.731  -3.669 -20.095  0.00  0.00     0.053 C 
BRANCH  13  14
HETATM   14  C   UNK     0       2.101  -3.710 -19.617  0.00  0.00    -0.027 C 
HETATM   15  C   UNK     0       2.454  -3.655 -18.319  0.00  0.00    -0.027 C 
BRANCH  15  16
HETATM   16  C   UNK     0       1.565  -3.560 -17.166  0.00  0.00     0.053 C 
BRANCH  16  17
HETATM   17  C   UNK     0       1.248  -4.819 -16.507  0.00  0.00    -0.027 C 
HETATM   18  C   UNK     0       2.101  -5.557 -15.778  0.00  0.00    -0.030 C 
BRANCH  18  19
HETATM   19  C   UNK     0       3.496  -5.268 -15.486  0.00  0.00     0.027 C 
BRANCH  19  20
HETATM   20  C   UNK     0       3.799  -5.085 -13.977  0.00  0.00     0.004 C 
BRANCH  20  21
HETATM   21  C   UNK     0       2.708  -4.316 -13.186  0.00  0.00    -0.000 C 
BRANCH  21  22
HETATM   22  C   UNK     0       3.008  -2.847 -12.800  0.00  0.00    -0.005 C 
HETATM   23  C   UNK     0       2.418  -2.434 -11.435  0.00  0.00     0.005 C 
ENDBRANCH  21  22
ENDBRANCH  20  21
ENDBRANCH  19  20
ENDBRANCH  18  19
ENDBRANCH  16  17
ENDBRANCH  15  16
ENDBRANCH  13  14
ENDBRANCH  12  13
ENDBRANCH  10  11
ENDBRANCH   9  10
ENDBRANCH   7   8
ENDBRANCH   6   7
ENDBRANCH   5   6
ENDBRANCH   3   5
ENDBRANCH   1   3
TORSDOF 15
ENDMDL
MODEL 3
REMARK VINA RESULT:      -5.1      2.609      5.051
REMARK  15 active torsions:
REMARK  status: ('A' for Active; 'I' for Inactive)
REMARK    1  A    between atoms: O_1  and  C_22 
REMARK    2  A    between atoms: C_3  and  C_4 
REMARK    3  A    between atoms: C_3  and  C_5 
REMARK    4  A    between atoms: C_4  and  C_6 
REMARK    5  A    between atoms: C_5  and  C_7 
REMARK    6  A    between atoms: C_9  and  C_10 
REMARK    7  A    between atoms: C_9  and  C_13 
REMARK    8  A    between atoms: C_10  and  C_14 
REMARK    9  A    between atoms: C_11  and  C_12 
REMARK   10  A    between atoms: C_12  and  C_16 
REMARK   11  A    between atoms: C_13  and  C_22 
REMARK   12  A    between atoms: C_15  and  C_17 
REMARK   13  A    between atoms: C_15  and  C_20 
REMARK   14  A    between atoms: C_18  and  C_19 
REMARK   15  A    between atoms: C_18  and  C_21 
ROOT
HETATM    1  O   UNK     0       4.787  -2.798 -11.993  0.00  0.00    -0.776 OA
HETATM    2  H   UNK     0       5.316  -3.457 -11.744  0.00  0.00     0.167 HD
ENDROOT
BRANCH   1   3
HETATM    3  C   UNK     0       3.615  -3.012 -12.282  0.00  0.00     0.139 C 
HETATM    4  O   UNK     0       2.789  -2.247 -11.806  0.00  0.00    -0.650 OA
BRANCH   3   5
HETATM    5  C   UNK     0       3.270  -4.110 -13.161  0.00  0.00     0.110 C 
BRANCH   5   6
HETATM    6  C   UNK     0       2.953  -3.837 -14.656  0.00  0.00     0.014 C 
BRANCH   6   7
HETATM    7  C   UNK     0       1.862  -4.758 -15.263  0.00  0.00     0.027 C 
BRANCH   7   8
HETATM    8  C   UNK     0       1.738  -4.652 -16.710  0.00  0.00    -0.030 C 
HETATM    9  C   UNK     0       1.745  -5.652 -17.609  0.00  0.00    -0.027 C 
BRANCH   9  10
HETATM   10  C   UNK     0       1.880  -7.066 -17.299  0.00  0.00     0.053 C 
BRANCH  10  11
HETATM   11  C   UNK     0       3.242  -7.591 -17.281  0.00  0.00    -0.027 C 
HETATM   12  C   UNK     0       4.025  -7.785 -16.203  0.00  0.00    -0.027 C 
BRANCH  12  13
HETATM   13  C   UNK     0       3.629  -7.476 -14.840  0.00  0.00     0.053 C 
BRANCH  13  14
HETATM   14  C   UNK     0       4.568  -7.595 -13.739  0.00  0.00    -0.027 C 
HETATM   15  C   UNK     0       5.696  -6.869 -13.623  0.00  0.00    -0.027 C 
BRANCH  15  16
HETATM   16  C   UNK     0       6.183  -5.842 -14.537  0.00  0.00     0.053 C 
BRANCH  16  17
HETATM   17  C   UNK     0       7.368  -6.190 -15.307  0.00  0.00    -0.027 C 
HETATM   18  C   UNK     0       8.243  -5.317 -15.833  0.00  0.00    -0.030 C 
BRANCH  18  19
HETATM   19  C   UNK     0       8.207  -3.866 -15.748  0.00  0.00     0.027 C 
BRANCH  19  20
HETATM   20  C   UNK     0       7.529  -3.180 -16.962  0.00  0.00     0.004 C 
BRANCH  20  21
HETATM   21  C   UNK     0       5.984  -3.076 -16.868  0.00  0.00    -0.000 C 
BRANCH  21  22
HETATM   22  C   UNK     0       5.150  -4.173 -17.574  0.00  0.00    -0.005 C 
HETATM   23  C   UNK     0       5.273  -4.147 -19.113  0.00  0.00     0.005 C 
ENDBRANCH  21  22
ENDBRANCH  20  21
ENDBRANCH  19  20
ENDBRANCH  18  19
ENDBRANCH  16  17
ENDBRANCH  15  16
ENDBRANCH  13  14
ENDBRANCH  12  13
ENDBRANCH  10  11
ENDBRANCH   9  10
ENDBRANCH   7   8
ENDBRANCH   6   7
ENDBRANCH   5   6
ENDBRANCH   3   5
ENDBRANCH   1   3
TORSDOF 15
ENDMDL
MODEL 4
REMARK VINA RESULT:      -5.0      3.644      7.201
REMARK  15 active torsions:
REMARK  status: ('A' for Active; 'I' for Inactive)
REMARK    1  A    between atoms: O_1  and  C_22 
REMARK    2  A    between atoms: C_3  and  C_4 
REMARK    3  A    between atoms: C_3  and  C_5 
REMARK    4  A    between atoms: C_4  and  C_6 
REMARK    5  A    between atoms: C_5  and  C_7 
REMARK    6  A    between atoms: C_9  and  C_10 
REMARK    7  A    between atoms: C_9  and  C_13 
REMARK    8  A    between atoms: C_10  and  C_14 
REMARK    9  A    between atoms: C_11  and  C_12 
REMARK   10  A    between atoms: C_12  and  C_16 
REMARK   11  A    between atoms: C_13  and  C_22 
REMARK   12  A    between atoms: C_15  and  C_17 
REMARK   13  A    between atoms: C_15  and  C_20 
REMARK   14  A    between atoms: C_18  and  C_19 
REMARK   15  A    between atoms: C_18  and  C_21 
ROOT
HETATM    1  O   UNK     0       1.310   0.805 -19.239  0.00  0.00    -0.776 OA
HETATM    2  H   UNK     0       1.933   0.476 -19.767  0.00  0.00     0.167 HD
ENDROOT
BRANCH   1   3
HETATM    3  C   UNK     0       0.125   0.720 -19.541  0.00  0.00     0.139 C 
HETATM    4  O   UNK     0      -0.127   0.632 -20.734  0.00  0.00    -0.650 OA
BRANCH   3   5
HETATM    5  C   UNK     0      -0.891   0.709 -18.509  0.00  0.00     0.110 C 
BRANCH   5   6
HETATM    6  C   UNK     0      -1.207  -0.606 -17.747  0.00  0.00     0.014 C 
BRANCH   6   7
HETATM    7  C   UNK     0      -0.468  -1.859 -18.288  0.00  0.00     0.027 C 
BRANCH   7   8
HETATM    8  C   UNK     0      -1.298  -3.053 -18.350  0.00  0.00    -0.030 C 
HETATM    9  C   UNK     0      -1.020  -4.273 -17.856  0.00  0.00    -0.027 C 
BRANCH   9  10
HETATM   10  C   UNK     0       0.194  -4.638 -17.144  0.00  0.00     0.053 C 
BRANCH  10  11
HETATM   11  C   UNK     0       1.395  -4.788 -17.960  0.00  0.00    -0.027 C 
HETATM   12  C   UNK     0       2.538  -4.084 -17.862  0.00  0.00    -0.027 C 
BRANCH  12  13
HETATM   13  C   UNK     0       2.758  -3.013 -16.905  0.00  0.00     0.053 C 
BRANCH  13  14
HETATM   14  C   UNK     0       4.032  -2.862 -16.225  0.00  0.00    -0.027 C 
HETATM   15  C   UNK     0       4.317  -3.396 -15.022  0.00  0.00    -0.027 C 
BRANCH  15  16
HETATM   16  C   UNK     0       3.443  -4.216 -14.191  0.00  0.00     0.053 C 
BRANCH  16  17
HETATM   17  C   UNK     0       4.031  -5.444 -13.675  0.00  0.00    -0.027 C 
HETATM   18  C   UNK     0       4.056  -6.627 -14.312  0.00  0.00    -0.030 C 
BRANCH  18  19
HETATM   19  C   UNK     0       3.521  -6.935 -15.628  0.00  0.00     0.027 C 
BRANCH  19  20
HETATM   20  C   UNK     0       4.593  -7.381 -16.656  0.00  0.00     0.004 C 
BRANCH  20  21
HETATM   21  C   UNK     0       5.371  -6.218 -17.326  0.00  0.00    -0.000 C 
BRANCH  21  22
HETATM   22  C   UNK     0       6.701  -5.777 -16.668  0.00  0.00    -0.005 C 
HETATM   23  C   UNK     0       7.430  -6.918 -15.926  0.00  0.00     0.005 C 
ENDBRANCH  21  22
ENDBRANCH  20  21
ENDBRANCH  19  20
ENDBRANCH  18  19
ENDBRANCH  16  17
ENDBRANCH  15  16
ENDBRANCH  13  14
ENDBRANCH  12  13
ENDBRANCH  10  11
ENDBRANCH   9  10
ENDBRANCH   7   8
ENDBRANCH   6   7
ENDBRANCH   5   6
ENDBRANCH   3   5
ENDBRANCH   1   3
TORSDOF 15
ENDMDL
MODEL 5
REMARK VINA RESULT:      -5.0      2.496      5.266
REMARK  15 active torsions:
REMARK  status: ('A' for Active; 'I' for Inactive)
REMARK    1  A    between atoms: O_1  and  C_22 
REMARK    2  A    between atoms: C_3  and  C_4 
REMARK    3  A    between atoms: C_3  and  C_5 
REMARK    4  A    between atoms: C_4  and  C_6 
REMARK    5  A    between atoms: C_5  and  C_7 
REMARK    6  A    between atoms: C_9  and  C_10 
REMARK    7  A    between atoms: C_9  and  C_13 
REMARK    8  A    between atoms: C_10  and  C_14 
REMARK    9  A    between atoms: C_11  and  C_12 
REMARK   10  A    between atoms: C_12  and  C_16 
REMARK   11  A    between atoms: C_13  and  C_22 
REMARK   12  A    between atoms: C_15  and  C_17 
REMARK   13  A    between atoms: C_15  and  C_20 
REMARK   14  A    between atoms: C_18  and  C_19 
REMARK   15  A    between atoms: C_18  and  C_21 
ROOT
HETATM    1  O   UNK     0       5.104  -2.742 -11.926  0.00  0.00    -0.776 OA
HETATM    2  H   UNK     0       4.585  -2.558 -11.239  0.00  0.00     0.167 HD
ENDROOT
BRANCH   1   3
HETATM    3  C   UNK     0       4.795  -3.614 -12.730  0.00  0.00     0.139 C 
HETATM    4  O   UNK     0       5.706  -4.306 -13.158  0.00  0.00    -0.650 OA
BRANCH   3   5
HETATM    5  C   UNK     0       3.410  -3.795 -13.112  0.00  0.00     0.110 C 
BRANCH   5   6
HETATM    6  C   UNK     0       3.017  -3.820 -14.613  0.00  0.00     0.014 C 
BRANCH   6   7
HETATM    7  C   UNK     0       2.084  -4.992 -15.017  0.00  0.00     0.027 C 
BRANCH   7   8
HETATM    8  C   UNK     0       2.615  -5.831 -16.081  0.00  0.00    -0.030 C 
HETATM    9  C   UNK     0       2.486  -5.656 -17.408  0.00  0.00    -0.027 C 
BRANCH   9  10
HETATM   10  C   UNK     0       1.772  -4.563 -18.049  0.00  0.00     0.053 C 
BRANCH  10  11
HETATM   11  C   UNK     0       0.391  -4.362 -17.623  0.00  0.00    -0.027 C 
HETATM   12  C   UNK     0      -0.701  -4.292 -18.407  0.00  0.00    -0.027 C 
BRANCH  12  13
HETATM   13  C   UNK     0      -0.673  -4.392 -19.856  0.00  0.00     0.053 C 
BRANCH  13  14
HETATM   14  C   UNK     0      -1.105  -3.287 -20.694  0.00  0.00    -0.027 C 
HETATM   15  C   UNK     0      -0.328  -2.240 -21.027  0.00  0.00    -0.027 C 
BRANCH  15  16
HETATM   16  C   UNK     0       1.060  -2.012 -20.640  0.00  0.00     0.053 C 
BRANCH  16  17
HETATM   17  C   UNK     0       1.366  -0.681 -20.136  0.00  0.00    -0.027 C 
HETATM   18  C   UNK     0       0.987  -0.189 -18.944  0.00  0.00    -0.030 C 
BRANCH  18  19
HETATM   19  C   UNK     0       0.213  -0.864 -17.914  0.00  0.00     0.027 C 
BRANCH  19  20
HETATM   20  C   UNK     0      -1.255  -0.375 -17.808  0.00  0.00     0.004 C 
BRANCH  20  21
HETATM   21  C   UNK     0      -1.577   0.893 -18.642  0.00  0.00    -0.000 C 
BRANCH  21  22
HETATM   22  C   UNK     0      -2.293   0.691 -20.000  0.00  0.00    -0.005 C 
HETATM   23  C   UNK     0      -3.806   0.418 -19.865  0.00  0.00     0.005 C 
ENDBRANCH  21  22
ENDBRANCH  20  21
ENDBRANCH  19  20
ENDBRANCH  18  19
ENDBRANCH  16  17
ENDBRANCH  15  16
ENDBRANCH  13  14
ENDBRANCH  12  13
ENDBRANCH  10  11
ENDBRANCH   9  10
ENDBRANCH   7   8
ENDBRANCH   6   7
ENDBRANCH   5   6
ENDBRANCH   3   5
ENDBRANCH   1   3
TORSDOF 15
ENDMDL
MODEL 6
REMARK VINA RESULT:      -5.0      3.572      7.677
REMARK  15 active torsions:
REMARK  status: ('A' for Active; 'I' for Inactive)
REMARK    1  A    between atoms: O_1  and  C_22 
REMARK    2  A    between atoms: C_3  and  C_4 
REMARK    3  A    between atoms: C_3  and  C_5 
REMARK    4  A    between atoms: C_4  and  C_6 
REMARK    5  A    between atoms: C_5  and  C_7 
REMARK    6  A    between atoms: C_9  and  C_10 
REMARK    7  A    between atoms: C_9  and  C_13 
REMARK    8  A    between atoms: C_10  and  C_14 
REMARK    9  A    between atoms: C_11  and  C_12 
REMARK   10  A    between atoms: C_12  and  C_16 
REMARK   11  A    between atoms: C_13  and  C_22 
REMARK   12  A    between atoms: C_15  and  C_17 
REMARK   13  A    between atoms: C_15  and  C_20 
REMARK   14  A    between atoms: C_18  and  C_19 
REMARK   15  A    between atoms: C_18  and  C_21 
ROOT
HETATM    1  O   UNK     0      -3.345  -6.055 -17.702  0.00  0.00    -0.776 OA
HETATM    2  H   UNK     0      -3.225  -6.499 -18.454  0.00  0.00     0.167 HD
ENDROOT
BRANCH   1   3
HETATM    3  C   UNK     0      -3.502  -4.840 -17.711  0.00  0.00     0.139 C 
HETATM    4  O   UNK     0      -3.507  -4.284 -16.623  0.00  0.00    -0.650 OA
BRANCH   3   5
HETATM    5  C   UNK     0      -3.651  -4.133 -18.967  0.00  0.00     0.110 C 
BRANCH   5   6
HETATM    6  C   UNK     0      -2.445  -4.013 -19.936  0.00  0.00     0.014 C 
BRANCH   6   7
HETATM    7  C   UNK     0      -2.049  -2.556 -20.296  0.00  0.00     0.027 C 
BRANCH   7   8
HETATM    8  C   UNK     0      -2.861  -1.543 -19.638  0.00  0.00    -0.030 C 
HETATM    9  C   UNK     0      -2.541  -0.809 -18.557  0.00  0.00    -0.027 C 
BRANCH   9  10
HETATM   10  C   UNK     0      -1.288  -0.890 -17.822  0.00  0.00     0.053 C 
BRANCH  10  11
HETATM   11  C   UNK     0      -0.222  -0.001 -18.274  0.00  0.00    -0.027 C 
HETATM   12  C   UNK     0       1.088  -0.291 -18.383  0.00  0.00    -0.027 C 
BRANCH  12  13
HETATM   13  C   UNK     0       1.670  -1.577 -18.040  0.00  0.00     0.053 C 
BRANCH  13  14
HETATM   14  C   UNK     0       1.595  -2.704 -18.952  0.00  0.00    -0.027 C 
HETATM   15  C   UNK     0       1.061  -3.899 -18.638  0.00  0.00    -0.027 C 
BRANCH  15  16
HETATM   16  C   UNK     0       0.459  -4.291 -17.368  0.00  0.00     0.053 C 
BRANCH  16  17
HETATM   17  C   UNK     0       0.816  -5.615 -16.880  0.00  0.00    -0.027 C 
HETATM   18  C   UNK     0       1.939  -5.926 -16.211  0.00  0.00    -0.030 C 
BRANCH  18  19
HETATM   19  C   UNK     0       3.018  -5.030 -15.829  0.00  0.00     0.027 C 
BRANCH  19  20
HETATM   20  C   UNK     0       2.614  -3.972 -14.770  0.00  0.00     0.004 C 
BRANCH  20  21
HETATM   21  C   UNK     0       3.692  -3.693 -13.689  0.00  0.00    -0.000 C 
BRANCH  21  22
HETATM   22  C   UNK     0       3.292  -2.784 -12.502  0.00  0.00    -0.005 C 
HETATM   23  C   UNK     0       2.044  -3.278 -11.739  0.00  0.00     0.005 C 
ENDBRANCH  21  22
ENDBRANCH  20  21
ENDBRANCH  19  20
ENDBRANCH  18  19
ENDBRANCH  16  17
ENDBRANCH  15  16
ENDBRANCH  13  14
ENDBRANCH  12  13
ENDBRANCH  10  11
ENDBRANCH   9  10
ENDBRANCH   7   8
ENDBRANCH   6   7
ENDBRANCH   5   6
ENDBRANCH   3   5
ENDBRANCH   1   3
TORSDOF 15
ENDMDL
MODEL 7
REMARK VINA RESULT:      -4.9      4.233      8.153
REMARK  15 active torsions:
REMARK  status: ('A' for Active; 'I' for Inactive)
REMARK    1  A    between atoms: O_1  and  C_22 
REMARK    2  A    between atoms: C_3  and  C_4 
REMARK    3  A    between atoms: C_3  and  C_5 
REMARK    4  A    between atoms: C_4  and  C_6 
REMARK    5  A    between atoms: C_5  and  C_7 
REMARK    6  A    between atoms: C_9  and  C_10 
REMARK    7  A    between atoms: C_9  and  C_13 
REMARK    8  A    between atoms: C_10  and  C_14 
REMARK    9  A    between atoms: C_11  and  C_12 
REMARK   10  A    between atoms: C_12  and  C_16 
REMARK   11  A    between atoms: C_13  and  C_22 
REMARK   12  A    between atoms: C_15  and  C_17 
REMARK   13  A    between atoms: C_15  and  C_20 
REMARK   14  A    between atoms: C_18  and  C_19 
REMARK   15  A    between atoms: C_18  and  C_21 
ROOT
HETATM    1  O   UNK     0       2.877  -0.516 -22.316  0.00  0.00    -0.776 OA
HETATM    2  H   UNK     0       2.757  -0.951 -23.073  0.00  0.00     0.167 HD
ENDROOT
BRANCH   1   3
HETATM    3  C   UNK     0       2.123   0.392 -21.989  0.00  0.00     0.139 C 
HETATM    4  O   UNK     0       2.215   1.431 -22.625  0.00  0.00    -0.650 OA
BRANCH   3   5
HETATM    5  C   UNK     0       1.174   0.199 -20.912  0.00  0.00     0.110 C 
BRANCH   5   6
HETATM    6  C   UNK     0       1.468  -0.841 -19.798  0.00  0.00     0.014 C 
BRANCH   6   7
HETATM    7  C   UNK     0       1.012  -0.413 -18.378  0.00  0.00     0.027 C 
BRANCH   7   8
HETATM    8  C   UNK     0      -0.328   0.154 -18.333  0.00  0.00    -0.030 C 
HETATM    9  C   UNK     0      -1.482  -0.486 -18.074  0.00  0.00    -0.027 C 
BRANCH   9  10
HETATM   10  C   UNK     0      -1.613  -1.905 -17.780  0.00  0.00     0.053 C 
BRANCH  10  11
HETATM   11  C   UNK     0      -1.880  -2.774 -18.922  0.00  0.00    -0.027 C 
HETATM   12  C   UNK     0      -1.176  -3.857 -19.302  0.00  0.00    -0.027 C 
BRANCH  12  13
HETATM   13  C   UNK     0       0.014  -4.338 -18.621  0.00  0.00     0.053 C 
BRANCH  13  14
HETATM   14  C   UNK     0      -0.080  -5.069 -17.370  0.00  0.00    -0.027 C 
HETATM   15  C   UNK     0       0.869  -5.063 -16.416  0.00  0.00    -0.027 C 
BRANCH  15  16
HETATM   16  C   UNK     0       2.135  -4.339 -16.435  0.00  0.00     0.053 C 
BRANCH  16  17
HETATM   17  C   UNK     0       3.333  -5.161 -16.528  0.00  0.00    -0.027 C 
HETATM   18  C   UNK     0       4.555  -4.817 -16.088  0.00  0.00    -0.030 C 
BRANCH  18  19
HETATM   19  C   UNK     0       4.942  -3.579 -15.431  0.00  0.00     0.027 C 
BRANCH  19  20
HETATM   20  C   UNK     0       5.428  -3.766 -13.970  0.00  0.00     0.004 C 
BRANCH  20  21
HETATM   21  C   UNK     0       4.294  -3.984 -12.934  0.00  0.00    -0.000 C 
BRANCH  21  22
HETATM   22  C   UNK     0       3.163  -2.928 -12.883  0.00  0.00    -0.005 C 
HETATM   23  C   UNK     0       2.162  -3.151 -11.728  0.00  0.00     0.005 C 
ENDBRANCH  21  22
ENDBRANCH  20  21
ENDBRANCH  19  20
ENDBRANCH  18  19
ENDBRANCH  16  17
ENDBRANCH  15  16
ENDBRANCH  13  14
ENDBRANCH  12  13
ENDBRANCH  10  11
ENDBRANCH   9  10
ENDBRANCH   7   8
ENDBRANCH   6   7
ENDBRANCH   5   6
ENDBRANCH   3   5
ENDBRANCH   1   3
TORSDOF 15
ENDMDL
MODEL 8
REMARK VINA RESULT:      -4.8      3.827      7.689
REMARK  15 active torsions:
REMARK  status: ('A' for Active; 'I' for Inactive)
REMARK    1  A    between atoms: O_1  and  C_22 
REMARK    2  A    between atoms: C_3  and  C_4 
REMARK    3  A    between atoms: C_3  and  C_5 
REMARK    4  A    between atoms: C_4  and  C_6 
REMARK    5  A    between atoms: C_5  and  C_7 
REMARK    6  A    between atoms: C_9  and  C_10 
REMARK    7  A    between atoms: C_9  and  C_13 
REMARK    8  A    between atoms: C_10  and  C_14 
REMARK    9  A    between atoms: C_11  and  C_12 
REMARK   10  A    between atoms: C_12  and  C_16 
REMARK   11  A    between atoms: C_13  and  C_22 
REMARK   12  A    between atoms: C_15  and  C_17 
REMARK   13  A    between atoms: C_15  and  C_20 
REMARK   14  A    between atoms: C_18  and  C_19 
REMARK   15  A    between atoms: C_18  and  C_21 
ROOT
HETATM    1  O   UNK     0       2.777  -3.725 -21.267  0.00  0.00    -0.776 OA
HETATM    2  H   UNK     0       2.705  -4.390 -21.841  0.00  0.00     0.167 HD
ENDROOT
BRANCH   1   3
HETATM    3  C   UNK     0       2.916  -3.943 -20.070  0.00  0.00     0.139 C 
HETATM    4  O   UNK     0       3.402  -5.023 -19.766  0.00  0.00    -0.650 OA
BRANCH   3   5
HETATM    5  C   UNK     0       2.530  -2.942 -19.097  0.00  0.00     0.110 C 
BRANCH   5   6
HETATM    6  C   UNK     0       1.605  -1.769 -19.518  0.00  0.00     0.014 C 
BRANCH   6   7
HETATM    7  C   UNK     0       1.226  -0.800 -18.366  0.00  0.00     0.027 C 
BRANCH   7   8
HETATM    8  C   UNK     0       0.019  -0.026 -18.617  0.00  0.00    -0.030 C 
HETATM    9  C   UNK     0      -1.248  -0.361 -18.316  0.00  0.00    -0.027 C 
BRANCH   9  10
HETATM   10  C   UNK     0      -1.664  -1.592 -17.663  0.00  0.00     0.053 C 
BRANCH  10  11
HETATM   11  C   UNK     0      -1.817  -2.756 -18.529  0.00  0.00    -0.027 C 
HETATM   12  C   UNK     0      -1.179  -3.937 -18.427  0.00  0.00    -0.027 C 
BRANCH  12  13
HETATM   13  C   UNK     0      -0.186  -4.243 -17.411  0.00  0.00     0.053 C 
BRANCH  13  14
HETATM   14  C   UNK     0       0.538  -5.501 -17.422  0.00  0.00    -0.027 C 
HETATM   15  C   UNK     0       1.490  -5.836 -16.531  0.00  0.00    -0.027 C 
BRANCH  15  16
HETATM   16  C   UNK     0       1.964  -5.039 -15.405  0.00  0.00     0.053 C 
BRANCH  16  17
HETATM   17  C   UNK     0       2.791  -3.890 -15.746  0.00  0.00    -0.027 C 
HETATM   18  C   UNK     0       3.804  -3.408 -15.007  0.00  0.00    -0.030 C 
BRANCH  18  19
HETATM   19  C   UNK     0       4.294  -3.918 -13.736  0.00  0.00     0.027 C 
BRANCH  19  20
HETATM   20  C   UNK     0       3.809  -3.111 -12.504  0.00  0.00     0.004 C 
BRANCH  20  21
HETATM   21  C   UNK     0       2.387  -3.480 -12.007  0.00  0.00    -0.000 C 
BRANCH  21  22
HETATM   22  C   UNK     0       1.601  -2.398 -11.227  0.00  0.00    -0.005 C 
HETATM   23  C   UNK     0       2.216  -2.059  -9.852  0.00  0.00     0.005 C 
ENDBRANCH  21  22
ENDBRANCH  20  21
ENDBRANCH  19  20
ENDBRANCH  18  19
ENDBRANCH  16  17
ENDBRANCH  15  16
ENDBRANCH  13  14
ENDBRANCH  12  13
ENDBRANCH  10  11
ENDBRANCH   9  10
ENDBRANCH   7   8
ENDBRANCH   6   7
ENDBRANCH   5   6
ENDBRANCH   3   5
ENDBRANCH   1   3
TORSDOF 15
ENDMDL
MODEL 9
REMARK VINA RESULT:      -4.8      2.844      5.760
REMARK  15 active torsions:
REMARK  status: ('A' for Active; 'I' for Inactive)
REMARK    1  A    between atoms: O_1  and  C_22 
REMARK    2  A    between atoms: C_3  and  C_4 
REMARK    3  A    between atoms: C_3  and  C_5 
REMARK    4  A    between atoms: C_4  and  C_6 
REMARK    5  A    between atoms: C_5  and  C_7 
REMARK    6  A    between atoms: C_9  and  C_10 
REMARK    7  A    between atoms: C_9  and  C_13 
REMARK    8  A    between atoms: C_10  and  C_14 
REMARK    9  A    between atoms: C_11  and  C_12 
REMARK   10  A    between atoms: C_12  and  C_16 
REMARK   11  A    between atoms: C_13  and  C_22 
REMARK   12  A    between atoms: C_15  and  C_17 
REMARK   13  A    between atoms: C_15  and  C_20 
REMARK   14  A    between atoms: C_18  and  C_19 
REMARK   15  A    between atoms: C_18  and  C_21 
ROOT
HETATM    1  O   UNK     0       5.150  -2.818 -12.102  0.00  0.00    -0.776 OA
HETATM    2  H   UNK     0       5.190  -1.995 -12.413  0.00  0.00     0.167 HD
ENDROOT
BRANCH   1   3
HETATM    3  C   UNK     0       5.076  -3.773 -12.866  0.00  0.00     0.139 C 
HETATM    4  O   UNK     0       6.135  -4.254 -13.240  0.00  0.00    -0.650 OA
BRANCH   3   5
HETATM    5  C   UNK     0       3.783  -4.288 -13.266  0.00  0.00     0.110 C 
BRANCH   5   6
HETATM    6  C   UNK     0       3.107  -3.764 -14.562  0.00  0.00     0.014 C 
BRANCH   6   7
HETATM    7  C   UNK     0       1.999  -4.689 -15.131  0.00  0.00     0.027 C 
BRANCH   7   8
HETATM    8  C   UNK     0       2.504  -5.902 -15.757  0.00  0.00    -0.030 C 
HETATM    9  C   UNK     0       2.081  -6.475 -16.898  0.00  0.00    -0.027 C 
BRANCH   9  10
HETATM   10  C   UNK     0       1.010  -5.977 -17.746  0.00  0.00     0.053 C 
BRANCH  10  11
HETATM   11  C   UNK     0       1.425  -5.249 -18.941  0.00  0.00    -0.027 C 
HETATM   12  C   UNK     0       1.351  -3.922 -19.151  0.00  0.00    -0.027 C 
BRANCH  12  13
HETATM   13  C   UNK     0       0.811  -2.972 -18.194  0.00  0.00     0.053 C 
BRANCH  13  14
HETATM   14  C   UNK     0       1.176  -1.567 -18.240  0.00  0.00    -0.027 C 
HETATM   15  C   UNK     0       0.319  -0.554 -18.012  0.00  0.00    -0.027 C 
BRANCH  15  16
HETATM   16  C   UNK     0      -1.096  -0.653 -17.672  0.00  0.00     0.053 C 
BRANCH  16  17
HETATM   17  C   UNK     0      -1.993  -0.951 -18.779  0.00  0.00    -0.027 C 
HETATM   18  C   UNK     0      -2.684  -2.092 -18.940  0.00  0.00    -0.030 C 
BRANCH  18  19
HETATM   19  C   UNK     0      -2.696  -3.251 -18.063  0.00  0.00     0.027 C 
BRANCH  19  20
HETATM   20  C   UNK     0      -2.800  -4.606 -18.810  0.00  0.00     0.004 C 
BRANCH  20  21
HETATM   21  C   UNK     0      -3.292  -5.791 -17.937  0.00  0.00    -0.000 C 
BRANCH  21  22
HETATM   22  C   UNK     0      -3.233  -7.207 -18.559  0.00  0.00    -0.005 C 
HETATM   23  C   UNK     0      -1.871  -7.910 -18.367  0.00  0.00     0.005 C 
ENDBRANCH  21  22
ENDBRANCH  20  21
ENDBRANCH  19  20
ENDBRANCH  18  19
ENDBRANCH  16  17
ENDBRANCH  15  16
ENDBRANCH  13  14
ENDBRANCH  12  13
ENDBRANCH  10  11
ENDBRANCH   9  10
ENDBRANCH   7   8
ENDBRANCH   6   7
ENDBRANCH   5   6
ENDBRANCH   3   5
ENDBRANCH   1   3
TORSDOF 15
ENDMDL
