REMARK  16 active torsions:
REMARK  status: ('A' for Active; 'I' for Inactive)
REMARK    1  A    between atoms: O_1  and  C_20 
REMARK    2  A    between atoms: C_3  and  C_4 
REMARK    3  A    between atoms: C_3  and  C_5 
REMARK    4  A    between atoms: C_4  and  C_8 
REMARK    5  A    between atoms: C_5  and  C_11 
REMARK    6  A    between atoms: C_6  and  C_7 
REMARK    7  A    between atoms: C_6  and  C_9 
REMARK    8  A    between atoms: C_7  and  C_10 
REMARK    9  A    between atoms: C_8  and  C_12 
REMARK   10  A    between atoms: C_9  and  C_13 
REMARK   11  A    between atoms: C_10  and  C_14 
REMARK   12  A    between atoms: C_11  and  C_15 
REMARK   13  A    between atoms: C_12  and  C_16 
REMARK   14  A    between atoms: C_13  and  C_17 
REMARK   15  A    between atoms: C_14  and  C_18 
REMARK   16  A    between atoms: C_18  and  C_20 
ROOT
HETATM    1  O   UNK     0       6.938  -5.209   2.796  0.00  0.00    -0.776 OA
HETATM    2  H   UNK     0       7.479  -4.866   2.193  0.00  0.00     0.167 HD
ENDROOT
BRANCH   1   3
HETATM    3  C   UNK     0       5.724  -5.130   2.657  0.00  0.00     0.139 C 
HETATM    4  O   UNK     0       5.042  -5.631   3.536  0.00  0.00    -0.650 OA
BRANCH   3   5
HETATM    5  C   UNK     0       5.166  -4.465   1.495  0.00  0.00     0.110 C 
BRANCH   5   6
HETATM    6  C   UNK     0       3.620  -4.417   1.413  0.00  0.00     0.010 C 
BRANCH   6   7
HETATM    7  C   UNK     0       3.079  -3.694   0.156  0.00  0.00     0.001 C 
BRANCH   7   8
HETATM    8  C   UNK     0       1.532  -3.685   0.106  0.00  0.00     0.000 C 
BRANCH   8   9
HETATM    9  C   UNK     0       0.970  -3.007  -1.165  0.00  0.00     0.000 C 
BRANCH   9  10
HETATM   10  C   UNK     0      -0.577  -3.010  -1.235  0.00  0.00     0.004 C 
BRANCH  10  11
HETATM   11  C   UNK     0      -1.105  -2.451  -2.580  0.00  0.00     0.027 C 
BRANCH  11  12
HETATM   12  C   UNK     0      -2.540  -2.229  -2.566  0.00  0.00    -0.031 C 
HETATM   13  C   UNK     0      -3.208  -1.062  -2.562  0.00  0.00    -0.031 C 
BRANCH  13  14
HETATM   14  C   UNK     0      -2.675   0.289  -2.571  0.00  0.00     0.027 C 
BRANCH  14  15
HETATM   15  C   UNK     0      -2.894   1.026  -1.226  0.00  0.00     0.004 C 
BRANCH  15  16
HETATM   16  C   UNK     0      -2.124   2.367  -1.145  0.00  0.00     0.000 C 
BRANCH  16  17
HETATM   17  C   UNK     0      -2.436   3.187   0.129  0.00  0.00     0.000 C 
BRANCH  17  18
HETATM   18  C   UNK     0      -1.671   4.532   0.183  0.00  0.00     0.000 C 
BRANCH  18  19
HETATM   19  C   UNK     0      -2.006   5.384   1.433  0.00  0.00    -0.000 C 
BRANCH  19  20
HETATM   20  C   UNK     0      -1.255   6.739   1.455  0.00  0.00    -0.005 C 
HETATM   21  C   UNK     0      -1.562   7.607   2.693  0.00  0.00     0.005 C 
ENDBRANCH  19  20
ENDBRANCH  18  19
ENDBRANCH  17  18
ENDBRANCH  16  17
ENDBRANCH  15  16
ENDBRANCH  14  15
ENDBRANCH  13  14
ENDBRANCH  11  12
ENDBRANCH  10  11
ENDBRANCH   9  10
ENDBRANCH   8   9
ENDBRANCH   7   8
ENDBRANCH   6   7
ENDBRANCH   5   6
ENDBRANCH   3   5
ENDBRANCH   1   3
TORSDOF 16
