MODEL 1
REMARK VINA RESULT:      -3.8      0.000      0.000
REMARK  16 active torsions:
REMARK  status: ('A' for Active; 'I' for Inactive)
REMARK    1  A    between atoms: O_1  and  C_20 
REMARK    2  A    between atoms: C_3  and  C_4 
REMARK    3  A    between atoms: C_3  and  C_5 
REMARK    4  A    between atoms: C_4  and  C_8 
REMARK    5  A    between atoms: C_5  and  C_11 
REMARK    6  A    between atoms: C_6  and  C_7 
REMARK    7  A    between atoms: C_6  and  C_9 
REMARK    8  A    between atoms: C_7  and  C_10 
REMARK    9  A    between atoms: C_8  and  C_12 
REMARK   10  A    between atoms: C_9  and  C_13 
REMARK   11  A    between atoms: C_10  and  C_14 
REMARK   12  A    between atoms: C_11  and  C_15 
REMARK   13  A    between atoms: C_12  and  C_16 
REMARK   14  A    between atoms: C_13  and  C_17 
REMARK   15  A    between atoms: C_14  and  C_18 
REMARK   16  A    between atoms: C_18  and  C_20 
ROOT
HETATM    1  O   UNK     0       5.134 -10.433 -17.240  0.00  0.00    -0.776 OA
HETATM    2  H   UNK     0       5.827  -9.903 -17.351  0.00  0.00     0.167 HD
ENDROOT
BRANCH   1   3
HETATM    3  C   UNK     0       3.995  -9.996 -17.348  0.00  0.00     0.139 C 
HETATM    4  O   UNK     0       3.163 -10.756 -17.817  0.00  0.00    -0.650 OA
BRANCH   3   5
HETATM    5  C   UNK     0       3.691  -8.642 -16.927  0.00  0.00     0.110 C 
BRANCH   5   6
HETATM    6  C   UNK     0       3.042  -8.492 -15.529  0.00  0.00     0.010 C 
BRANCH   6   7
HETATM    7  C   UNK     0       3.975  -7.861 -14.467  0.00  0.00     0.001 C 
BRANCH   7   8
HETATM    8  C   UNK     0       5.130  -7.054 -15.107  0.00  0.00     0.000 C 
BRANCH   8   9
HETATM    9  C   UNK     0       6.160  -6.543 -14.073  0.00  0.00     0.000 C 
BRANCH   9  10
HETATM   10  C   UNK     0       6.918  -5.273 -14.530  0.00  0.00     0.004 C 
BRANCH  10  11
HETATM   11  C   UNK     0       6.042  -3.999 -14.430  0.00  0.00     0.027 C 
BRANCH  11  12
HETATM   12  C   UNK     0       5.462  -3.824 -13.111  0.00  0.00    -0.031 C 
HETATM   13  C   UNK     0       4.196  -3.507 -12.786  0.00  0.00    -0.031 C 
BRANCH  13  14
HETATM   14  C   UNK     0       3.069  -3.255 -13.668  0.00  0.00     0.027 C 
BRANCH  14  15
HETATM   15  C   UNK     0       2.408  -4.560 -14.179  0.00  0.00     0.004 C 
BRANCH  15  16
HETATM   16  C   UNK     0       2.340  -4.632 -15.724  0.00  0.00     0.000 C 
BRANCH  16  17
HETATM   17  C   UNK     0       2.901  -3.375 -16.430  0.00  0.00     0.000 C 
BRANCH  17  18
HETATM   18  C   UNK     0       3.996  -3.707 -17.473  0.00  0.00     0.000 C 
BRANCH  18  19
HETATM   19  C   UNK     0       4.006  -5.194 -17.907  0.00  0.00    -0.000 C 
BRANCH  19  20
HETATM   20  C   UNK     0       5.128  -5.514 -18.927  0.00  0.00    -0.005 C 
HETATM   21  C   UNK     0       6.504  -5.783 -18.284  0.00  0.00     0.005 C 
ENDBRANCH  19  20
ENDBRANCH  18  19
ENDBRANCH  17  18
ENDBRANCH  16  17
ENDBRANCH  15  16
ENDBRANCH  14  15
ENDBRANCH  13  14
ENDBRANCH  11  12
ENDBRANCH  10  11
ENDBRANCH   9  10
ENDBRANCH   8   9
ENDBRANCH   7   8
ENDBRANCH   6   7
ENDBRANCH   5   6
ENDBRANCH   3   5
ENDBRANCH   1   3
TORSDOF 16
ENDMDL
MODEL 2
REMARK VINA RESULT:      -3.8      3.709      5.978
REMARK  16 active torsions:
REMARK  status: ('A' for Active; 'I' for Inactive)
REMARK    1  A    between atoms: O_1  and  C_20 
REMARK    2  A    between atoms: C_3  and  C_4 
REMARK    3  A    between atoms: C_3  and  C_5 
REMARK    4  A    between atoms: C_4  and  C_8 
REMARK    5  A    between atoms: C_5  and  C_11 
REMARK    6  A    between atoms: C_6  and  C_7 
REMARK    7  A    between atoms: C_6  and  C_9 
REMARK    8  A    between atoms: C_7  and  C_10 
REMARK    9  A    between atoms: C_8  and  C_12 
REMARK   10  A    between atoms: C_9  and  C_13 
REMARK   11  A    between atoms: C_10  and  C_14 
REMARK   12  A    between atoms: C_11  and  C_15 
REMARK   13  A    between atoms: C_12  and  C_16 
REMARK   14  A    between atoms: C_13  and  C_17 
REMARK   15  A    between atoms: C_14  and  C_18 
REMARK   16  A    between atoms: C_18  and  C_20 
ROOT
HETATM    1  O   UNK     0       2.183  -1.803 -11.241  0.00  0.00    -0.776 OA
HETATM    2  H   UNK     0       1.485  -1.344 -11.517  0.00  0.00     0.167 HD
ENDROOT
BRANCH   1   3
HETATM    3  C   UNK     0       2.429  -2.904 -11.716  0.00  0.00     0.139 C 
HETATM    4  O   UNK     0       1.827  -3.850 -11.235  0.00  0.00    -0.650 OA
BRANCH   3   5
HETATM    5  C   UNK     0       3.390  -3.034 -12.794  0.00  0.00     0.110 C 
BRANCH   5   6
HETATM    6  C   UNK     0       3.217  -4.266 -13.718  0.00  0.00     0.010 C 
BRANCH   6   7
HETATM    7  C   UNK     0       2.693  -3.923 -15.133  0.00  0.00     0.001 C 
BRANCH   7   8
HETATM    8  C   UNK     0       1.795  -5.042 -15.712  0.00  0.00     0.000 C 
BRANCH   8   9
HETATM    9  C   UNK     0       2.504  -5.892 -16.791  0.00  0.00     0.000 C 
BRANCH   9  10
HETATM   10  C   UNK     0       2.707  -7.371 -16.380  0.00  0.00     0.004 C 
BRANCH  10  11
HETATM   11  C   UNK     0       4.135  -7.641 -15.844  0.00  0.00     0.027 C 
BRANCH  11  12
HETATM   12  C   UNK     0       4.206  -7.583 -14.394  0.00  0.00    -0.031 C 
HETATM   13  C   UNK     0       5.204  -7.120 -13.622  0.00  0.00    -0.031 C 
BRANCH  13  14
HETATM   14  C   UNK     0       6.478  -6.552 -14.028  0.00  0.00     0.027 C 
BRANCH  14  15
HETATM   15  C   UNK     0       6.559  -5.026 -13.777  0.00  0.00     0.004 C 
BRANCH  15  16
HETATM   16  C   UNK     0       6.608  -4.204 -15.088  0.00  0.00     0.000 C 
BRANCH  16  17
HETATM   17  C   UNK     0       7.140  -5.002 -16.302  0.00  0.00     0.000 C 
BRANCH  17  18
HETATM   18  C   UNK     0       8.650  -4.775 -16.558  0.00  0.00     0.000 C 
BRANCH  18  19
HETATM   19  C   UNK     0       9.543  -5.937 -16.057  0.00  0.00    -0.000 C 
BRANCH  19  20
HETATM   20  C   UNK     0      10.074  -5.711 -14.619  0.00  0.00    -0.005 C 
HETATM   21  C   UNK     0      11.038  -4.514 -14.487  0.00  0.00     0.005 C 
ENDBRANCH  19  20
ENDBRANCH  18  19
ENDBRANCH  17  18
ENDBRANCH  16  17
ENDBRANCH  15  16
ENDBRANCH  14  15
ENDBRANCH  13  14
ENDBRANCH  11  12
ENDBRANCH  10  11
ENDBRANCH   9  10
ENDBRANCH   8   9
ENDBRANCH   7   8
ENDBRANCH   6   7
ENDBRANCH   5   6
ENDBRANCH   3   5
ENDBRANCH   1   3
TORSDOF 16
ENDMDL
MODEL 3
REMARK VINA RESULT:      -3.5      5.385      7.314
REMARK  16 active torsions:
REMARK  status: ('A' for Active; 'I' for Inactive)
REMARK    1  A    between atoms: O_1  and  C_20 
REMARK    2  A    between atoms: C_3  and  C_4 
REMARK    3  A    between atoms: C_3  and  C_5 
REMARK    4  A    between atoms: C_4  and  C_8 
REMARK    5  A    between atoms: C_5  and  C_11 
REMARK    6  A    between atoms: C_6  and  C_7 
REMARK    7  A    between atoms: C_6  and  C_9 
REMARK    8  A    between atoms: C_7  and  C_10 
REMARK    9  A    between atoms: C_8  and  C_12 
REMARK   10  A    between atoms: C_9  and  C_13 
REMARK   11  A    between atoms: C_10  and  C_14 
REMARK   12  A    between atoms: C_11  and  C_15 
REMARK   13  A    between atoms: C_12  and  C_16 
REMARK   14  A    between atoms: C_13  and  C_17 
REMARK   15  A    between atoms: C_14  and  C_18 
REMARK   16  A    between atoms: C_18  and  C_20 
ROOT
HETATM    1  O   UNK     0       3.563  -2.400 -12.436  0.00  0.00    -0.776 OA
HETATM    2  H   UNK     0       3.166  -1.626 -12.564  0.00  0.00     0.167 HD
ENDROOT
BRANCH   1   3
HETATM    3  C   UNK     0       2.925  -3.443 -12.504  0.00  0.00     0.139 C 
HETATM    4  O   UNK     0       2.152  -3.669 -11.587  0.00  0.00    -0.650 OA
BRANCH   3   5
HETATM    5  C   UNK     0       3.107  -4.335 -13.633  0.00  0.00     0.110 C 
BRANCH   5   6
HETATM    6  C   UNK     0       3.931  -3.776 -14.819  0.00  0.00     0.010 C 
BRANCH   6   7
HETATM    7  C   UNK     0       3.075  -3.363 -16.041  0.00  0.00     0.001 C 
BRANCH   7   8
HETATM    8  C   UNK     0       1.939  -4.375 -16.328  0.00  0.00     0.000 C 
BRANCH   8   9
HETATM    9  C   UNK     0       1.718  -4.626 -17.838  0.00  0.00     0.000 C 
BRANCH   9  10
HETATM   10  C   UNK     0       1.355  -3.347 -18.632  0.00  0.00     0.004 C 
BRANCH  10  11
HETATM   11  C   UNK     0      -0.007  -3.473 -19.358  0.00  0.00     0.027 C 
BRANCH  11  12
HETATM   12  C   UNK     0      -1.105  -3.725 -18.442  0.00  0.00    -0.031 C 
HETATM   13  C   UNK     0      -2.065  -2.878 -18.030  0.00  0.00    -0.031 C 
BRANCH  13  14
HETATM   14  C   UNK     0      -2.262  -1.485 -18.390  0.00  0.00     0.027 C 
BRANCH  14  15
HETATM   15  C   UNK     0      -1.265  -0.537 -17.678  0.00  0.00     0.004 C 
BRANCH  15  16
HETATM   16  C   UNK     0      -0.714   0.567 -18.613  0.00  0.00     0.000 C 
BRANCH  16  17
HETATM   17  C   UNK     0       0.666   0.232 -19.226  0.00  0.00     0.000 C 
BRANCH  17  18
HETATM   18  C   UNK     0       0.597  -0.051 -20.747  0.00  0.00     0.000 C 
BRANCH  18  19
HETATM   19  C   UNK     0      -0.823   0.115 -21.343  0.00  0.00    -0.000 C 
BRANCH  19  20
HETATM   20  C   UNK     0      -1.114  -0.887 -22.489  0.00  0.00    -0.005 C 
HETATM   21  C   UNK     0      -1.959  -2.104 -22.059  0.00  0.00     0.005 C 
ENDBRANCH  19  20
ENDBRANCH  18  19
ENDBRANCH  17  18
ENDBRANCH  16  17
ENDBRANCH  15  16
ENDBRANCH  14  15
ENDBRANCH  13  14
ENDBRANCH  11  12
ENDBRANCH  10  11
ENDBRANCH   9  10
ENDBRANCH   8   9
ENDBRANCH   7   8
ENDBRANCH   6   7
ENDBRANCH   5   6
ENDBRANCH   3   5
ENDBRANCH   1   3
TORSDOF 16
ENDMDL
MODEL 4
REMARK VINA RESULT:      -3.5      4.480      7.459
REMARK  16 active torsions:
REMARK  status: ('A' for Active; 'I' for Inactive)
REMARK    1  A    between atoms: O_1  and  C_20 
REMARK    2  A    between atoms: C_3  and  C_4 
REMARK    3  A    between atoms: C_3  and  C_5 
REMARK    4  A    between atoms: C_4  and  C_8 
REMARK    5  A    between atoms: C_5  and  C_11 
REMARK    6  A    between atoms: C_6  and  C_7 
REMARK    7  A    between atoms: C_6  and  C_9 
REMARK    8  A    between atoms: C_7  and  C_10 
REMARK    9  A    between atoms: C_8  and  C_12 
REMARK   10  A    between atoms: C_9  and  C_13 
REMARK   11  A    between atoms: C_10  and  C_14 
REMARK   12  A    between atoms: C_11  and  C_15 
REMARK   13  A    between atoms: C_12  and  C_16 
REMARK   14  A    between atoms: C_13  and  C_17 
REMARK   15  A    between atoms: C_14  and  C_18 
REMARK   16  A    between atoms: C_18  and  C_20 
ROOT
HETATM    1  O   UNK     0       2.741  -1.871 -20.451  0.00  0.00    -0.776 OA
HETATM    2  H   UNK     0       3.355  -1.599 -19.882  0.00  0.00     0.167 HD
ENDROOT
BRANCH   1   3
HETATM    3  C   UNK     0       1.655  -1.308 -20.508  0.00  0.00     0.139 C 
HETATM    4  O   UNK     0       0.876  -1.713 -21.356  0.00  0.00    -0.650 OA
BRANCH   3   5
HETATM    5  C   UNK     0       1.349  -0.222 -19.597  0.00  0.00     0.110 C 
BRANCH   5   6
HETATM    6  C   UNK     0       0.038   0.553 -19.875  0.00  0.00     0.010 C 
BRANCH   6   7
HETATM    7  C   UNK     0      -0.947   0.572 -18.681  0.00  0.00     0.001 C 
BRANCH   7   8
HETATM    8  C   UNK     0      -0.784  -0.667 -17.768  0.00  0.00     0.000 C 
BRANCH   8   9
HETATM    9  C   UNK     0      -1.832  -1.769 -18.046  0.00  0.00     0.000 C 
BRANCH   9  10
HETATM   10  C   UNK     0      -1.251  -3.006 -18.773  0.00  0.00     0.004 C 
BRANCH  10  11
HETATM   11  C   UNK     0      -0.409  -3.900 -17.829  0.00  0.00     0.027 C 
BRANCH  11  12
HETATM   12  C   UNK     0       0.972  -4.022 -18.261  0.00  0.00    -0.031 C 
HETATM   13  C   UNK     0       2.078  -4.154 -17.508  0.00  0.00    -0.031 C 
BRANCH  13  14
HETATM   14  C   UNK     0       2.190  -4.210 -16.061  0.00  0.00     0.027 C 
BRANCH  14  15
HETATM   15  C   UNK     0       3.401  -3.406 -15.525  0.00  0.00     0.004 C 
BRANCH  15  16
HETATM   16  C   UNK     0       3.416  -3.306 -13.979  0.00  0.00     0.000 C 
BRANCH  16  17
HETATM   17  C   UNK     0       3.932  -4.584 -13.278  0.00  0.00     0.000 C 
BRANCH  17  18
HETATM   18  C   UNK     0       5.401  -4.917 -13.638  0.00  0.00     0.000 C 
BRANCH  18  19
HETATM   19  C   UNK     0       5.608  -6.383 -14.094  0.00  0.00    -0.000 C 
BRANCH  19  20
HETATM   20  C   UNK     0       4.491  -7.332 -13.592  0.00  0.00    -0.005 C 
HETATM   21  C   UNK     0       3.730  -8.059 -14.721  0.00  0.00     0.005 C 
ENDBRANCH  19  20
ENDBRANCH  18  19
ENDBRANCH  17  18
ENDBRANCH  16  17
ENDBRANCH  15  16
ENDBRANCH  14  15
ENDBRANCH  13  14
ENDBRANCH  11  12
ENDBRANCH  10  11
ENDBRANCH   9  10
ENDBRANCH   8   9
ENDBRANCH   7   8
ENDBRANCH   6   7
ENDBRANCH   5   6
ENDBRANCH   3   5
ENDBRANCH   1   3
TORSDOF 16
ENDMDL
MODEL 5
REMARK VINA RESULT:      -3.5      3.695      5.623
REMARK  16 active torsions:
REMARK  status: ('A' for Active; 'I' for Inactive)
REMARK    1  A    between atoms: O_1  and  C_20 
REMARK    2  A    between atoms: C_3  and  C_4 
REMARK    3  A    between atoms: C_3  and  C_5 
REMARK    4  A    between atoms: C_4  and  C_8 
REMARK    5  A    between atoms: C_5  and  C_11 
REMARK    6  A    between atoms: C_6  and  C_7 
REMARK    7  A    between atoms: C_6  and  C_9 
REMARK    8  A    between atoms: C_7  and  C_10 
REMARK    9  A    between atoms: C_8  and  C_12 
REMARK   10  A    between atoms: C_9  and  C_13 
REMARK   11  A    between atoms: C_10  and  C_14 
REMARK   12  A    between atoms: C_11  and  C_15 
REMARK   13  A    between atoms: C_12  and  C_16 
REMARK   14  A    between atoms: C_13  and  C_17 
REMARK   15  A    between atoms: C_14  and  C_18 
REMARK   16  A    between atoms: C_18  and  C_20 
ROOT
HETATM    1  O   UNK     0       3.102  -3.427 -12.206  0.00  0.00    -0.776 OA
HETATM    2  H   UNK     0       2.906  -2.764 -11.662  0.00  0.00     0.167 HD
ENDROOT
BRANCH   1   3
HETATM    3  C   UNK     0       4.253  -3.595 -12.589  0.00  0.00     0.139 C 
HETATM    4  O   UNK     0       5.105  -2.883 -12.081  0.00  0.00    -0.650 OA
BRANCH   3   5
HETATM    5  C   UNK     0       4.547  -4.598 -13.593  0.00  0.00     0.110 C 
BRANCH   5   6
HETATM    6  C   UNK     0       6.029  -5.037 -13.707  0.00  0.00     0.010 C 
BRANCH   6   7
HETATM    7  C   UNK     0       6.735  -4.538 -14.991  0.00  0.00     0.001 C 
BRANCH   7   8
HETATM    8  C   UNK     0       5.731  -4.211 -16.123  0.00  0.00     0.000 C 
BRANCH   8   9
HETATM    9  C   UNK     0       5.864  -5.153 -17.342  0.00  0.00     0.000 C 
BRANCH   9  10
HETATM   10  C   UNK     0       6.357  -6.575 -16.975  0.00  0.00     0.004 C 
BRANCH  10  11
HETATM   11  C   UNK     0       5.243  -7.640 -17.126  0.00  0.00     0.027 C 
BRANCH  11  12
HETATM   12  C   UNK     0       4.419  -7.757 -15.936  0.00  0.00    -0.031 C 
HETATM   13  C   UNK     0       3.197  -7.244 -15.709  0.00  0.00    -0.031 C 
BRANCH  13  14
HETATM   14  C   UNK     0       2.373  -6.436 -16.590  0.00  0.00     0.027 C 
BRANCH  14  15
HETATM   15  C   UNK     0       1.772  -5.198 -15.878  0.00  0.00     0.004 C 
BRANCH  15  16
HETATM   16  C   UNK     0       2.209  -3.862 -16.526  0.00  0.00     0.000 C 
BRANCH  16  17
HETATM   17  C   UNK     0       1.739  -3.698 -17.990  0.00  0.00     0.000 C 
BRANCH  17  18
HETATM   18  C   UNK     0       0.278  -3.198 -18.102  0.00  0.00     0.000 C 
BRANCH  18  19
HETATM   19  C   UNK     0      -0.774  -4.327 -17.966  0.00  0.00    -0.000 C 
BRANCH  19  20
HETATM   20  C   UNK     0      -2.218  -3.787 -17.807  0.00  0.00    -0.005 C 
HETATM   21  C   UNK     0      -3.221  -4.827 -17.267  0.00  0.00     0.005 C 
ENDBRANCH  19  20
ENDBRANCH  18  19
ENDBRANCH  17  18
ENDBRANCH  16  17
ENDBRANCH  15  16
ENDBRANCH  14  15
ENDBRANCH  13  14
ENDBRANCH  11  12
ENDBRANCH  10  11
ENDBRANCH   9  10
ENDBRANCH   8   9
ENDBRANCH   7   8
ENDBRANCH   6   7
ENDBRANCH   5   6
ENDBRANCH   3   5
ENDBRANCH   1   3
TORSDOF 16
ENDMDL
MODEL 6
REMARK VINA RESULT:      -3.5      4.397      6.774
REMARK  16 active torsions:
REMARK  status: ('A' for Active; 'I' for Inactive)
REMARK    1  A    between atoms: O_1  and  C_20 
REMARK    2  A    between atoms: C_3  and  C_4 
REMARK    3  A    between atoms: C_3  and  C_5 
REMARK    4  A    between atoms: C_4  and  C_8 
REMARK    5  A    between atoms: C_5  and  C_11 
REMARK    6  A    between atoms: C_6  and  C_7 
REMARK    7  A    between atoms: C_6  and  C_9 
REMARK    8  A    between atoms: C_7  and  C_10 
REMARK    9  A    between atoms: C_8  and  C_12 
REMARK   10  A    between atoms: C_9  and  C_13 
REMARK   11  A    between atoms: C_10  and  C_14 
REMARK   12  A    between atoms: C_11  and  C_15 
REMARK   13  A    between atoms: C_12  and  C_16 
REMARK   14  A    between atoms: C_13  and  C_17 
REMARK   15  A    between atoms: C_14  and  C_18 
REMARK   16  A    between atoms: C_18  and  C_20 
ROOT
HETATM    1  O   UNK     0       2.883  -0.275 -21.121  0.00  0.00    -0.776 OA
HETATM    2  H   UNK     0       3.234   0.352 -21.629  0.00  0.00     0.167 HD
ENDROOT
BRANCH   1   3
HETATM    3  C   UNK     0       1.735  -0.171 -20.709  0.00  0.00     0.139 C 
HETATM    4  O   UNK     0       1.266   0.955 -20.685  0.00  0.00    -0.650 OA
BRANCH   3   5
HETATM    5  C   UNK     0       1.004  -1.350 -20.285  0.00  0.00     0.110 C 
BRANCH   5   6
HETATM    6  C   UNK     0       1.043  -1.668 -18.770  0.00  0.00     0.010 C 
BRANCH   6   7
HETATM    7  C   UNK     0      -0.355  -1.752 -18.109  0.00  0.00     0.001 C 
BRANCH   7   8
HETATM    8  C   UNK     0      -0.869  -3.208 -18.010  0.00  0.00     0.000 C 
BRANCH   8   9
HETATM    9  C   UNK     0       0.268  -4.256 -18.025  0.00  0.00     0.000 C 
BRANCH   9  10
HETATM   10  C   UNK     0       0.438  -5.003 -16.679  0.00  0.00     0.004 C 
BRANCH  10  11
HETATM   11  C   UNK     0       1.922  -5.324 -16.370  0.00  0.00     0.027 C 
BRANCH  11  12
HETATM   12  C   UNK     0       2.793  -4.180 -16.572  0.00  0.00    -0.031 C 
HETATM   13  C   UNK     0       3.299  -3.338 -15.653  0.00  0.00    -0.031 C 
BRANCH  13  14
HETATM   14  C   UNK     0       3.111  -3.347 -14.213  0.00  0.00     0.027 C 
BRANCH  14  15
HETATM   15  C   UNK     0       4.446  -3.482 -13.438  0.00  0.00     0.004 C 
BRANCH  15  16
HETATM   16  C   UNK     0       4.902  -4.953 -13.280  0.00  0.00     0.000 C 
BRANCH  16  17
HETATM   17  C   UNK     0       5.852  -5.433 -14.402  0.00  0.00     0.000 C 
BRANCH  17  18
HETATM   18  C   UNK     0       5.385  -6.752 -15.065  0.00  0.00     0.000 C 
BRANCH  18  19
HETATM   19  C   UNK     0       4.410  -7.575 -14.185  0.00  0.00    -0.000 C 
BRANCH  19  20
HETATM   20  C   UNK     0       3.311  -8.287 -15.012  0.00  0.00    -0.005 C 
HETATM   21  C   UNK     0       3.752  -8.680 -16.437  0.00  0.00     0.005 C 
ENDBRANCH  19  20
ENDBRANCH  18  19
ENDBRANCH  17  18
ENDBRANCH  16  17
ENDBRANCH  15  16
ENDBRANCH  14  15
ENDBRANCH  13  14
ENDBRANCH  11  12
ENDBRANCH  10  11
ENDBRANCH   9  10
ENDBRANCH   8   9
ENDBRANCH   7   8
ENDBRANCH   6   7
ENDBRANCH   5   6
ENDBRANCH   3   5
ENDBRANCH   1   3
TORSDOF 16
ENDMDL
MODEL 7
REMARK VINA RESULT:      -3.5     14.651     16.843
REMARK  16 active torsions:
REMARK  status: ('A' for Active; 'I' for Inactive)
REMARK    1  A    between atoms: O_1  and  C_20 
REMARK    2  A    between atoms: C_3  and  C_4 
REMARK    3  A    between atoms: C_3  and  C_5 
REMARK    4  A    between atoms: C_4  and  C_8 
REMARK    5  A    between atoms: C_5  and  C_11 
REMARK    6  A    between atoms: C_6  and  C_7 
REMARK    7  A    between atoms: C_6  and  C_9 
REMARK    8  A    between atoms: C_7  and  C_10 
REMARK    9  A    between atoms: C_8  and  C_12 
REMARK   10  A    between atoms: C_9  and  C_13 
REMARK   11  A    between atoms: C_10  and  C_14 
REMARK   12  A    between atoms: C_11  and  C_15 
REMARK   13  A    between atoms: C_12  and  C_16 
REMARK   14  A    between atoms: C_13  and  C_17 
REMARK   15  A    between atoms: C_14  and  C_18 
REMARK   16  A    between atoms: C_18  and  C_20 
ROOT
HETATM    1  O   UNK     0      -2.821  -9.275  -6.766  0.00  0.00    -0.776 OA
HETATM    2  H   UNK     0      -1.954  -9.144  -6.840  0.00  0.00     0.167 HD
ENDROOT
BRANCH   1   3
HETATM    3  C   UNK     0      -3.255 -10.146  -6.024  0.00  0.00     0.139 C 
HETATM    4  O   UNK     0      -4.020 -10.956  -6.523  0.00  0.00    -0.650 OA
BRANCH   3   5
HETATM    5  C   UNK     0      -2.856 -10.180  -4.630  0.00  0.00     0.110 C 
BRANCH   5   6
HETATM    6  C   UNK     0      -3.935  -9.764  -3.600  0.00  0.00     0.010 C 
BRANCH   6   7
HETATM    7  C   UNK     0      -4.707  -8.478  -3.984  0.00  0.00     0.001 C 
BRANCH   7   8
HETATM    8  C   UNK     0      -5.301  -7.760  -2.747  0.00  0.00     0.000 C 
BRANCH   8   9
HETATM    9  C   UNK     0      -4.221  -7.143  -1.828  0.00  0.00     0.000 C 
BRANCH   9  10
HETATM   10  C   UNK     0      -4.129  -7.821  -0.440  0.00  0.00     0.004 C 
BRANCH  10  11
HETATM   11  C   UNK     0      -2.667  -8.140  -0.037  0.00  0.00     0.027 C 
BRANCH  11  12
HETATM   12  C   UNK     0      -2.239  -7.399   1.136  0.00  0.00    -0.031 C 
HETATM   13  C   UNK     0      -1.617  -6.208   1.195  0.00  0.00    -0.031 C 
BRANCH  13  14
HETATM   14  C   UNK     0      -1.207  -5.343   0.102  0.00  0.00     0.027 C 
BRANCH  14  15
HETATM   15  C   UNK     0      -1.903  -3.960   0.143  0.00  0.00     0.004 C 
BRANCH  15  16
HETATM   16  C   UNK     0      -2.495  -3.628   1.535  0.00  0.00     0.000 C 
BRANCH  16  17
HETATM   17  C   UNK     0      -4.019  -3.364   1.515  0.00  0.00     0.000 C 
BRANCH  17  18
HETATM   18  C   UNK     0      -4.852  -4.652   1.305  0.00  0.00     0.000 C 
BRANCH  18  19
HETATM   19  C   UNK     0      -5.850  -4.558   0.124  0.00  0.00    -0.000 C 
BRANCH  19  20
HETATM   20  C   UNK     0      -5.538  -3.380  -0.833  0.00  0.00    -0.005 C 
HETATM   21  C   UNK     0      -6.779  -2.566  -1.253  0.00  0.00     0.005 C 
ENDBRANCH  19  20
ENDBRANCH  18  19
ENDBRANCH  17  18
ENDBRANCH  16  17
ENDBRANCH  15  16
ENDBRANCH  14  15
ENDBRANCH  13  14
ENDBRANCH  11  12
ENDBRANCH  10  11
ENDBRANCH   9  10
ENDBRANCH   8   9
ENDBRANCH   7   8
ENDBRANCH   6   7
ENDBRANCH   5   6
ENDBRANCH   3   5
ENDBRANCH   1   3
TORSDOF 16
ENDMDL
MODEL 8
REMARK VINA RESULT:      -3.4      5.129      8.281
REMARK  16 active torsions:
REMARK  status: ('A' for Active; 'I' for Inactive)
REMARK    1  A    between atoms: O_1  and  C_20 
REMARK    2  A    between atoms: C_3  and  C_4 
REMARK    3  A    between atoms: C_3  and  C_5 
REMARK    4  A    between atoms: C_4  and  C_8 
REMARK    5  A    between atoms: C_5  and  C_11 
REMARK    6  A    between atoms: C_6  and  C_7 
REMARK    7  A    between atoms: C_6  and  C_9 
REMARK    8  A    between atoms: C_7  and  C_10 
REMARK    9  A    between atoms: C_8  and  C_12 
REMARK   10  A    between atoms: C_9  and  C_13 
REMARK   11  A    between atoms: C_10  and  C_14 
REMARK   12  A    between atoms: C_11  and  C_15 
REMARK   13  A    between atoms: C_12  and  C_16 
REMARK   14  A    between atoms: C_13  and  C_17 
REMARK   15  A    between atoms: C_14  and  C_18 
REMARK   16  A    between atoms: C_18  and  C_20 
ROOT
HETATM    1  O   UNK     0       2.210  -0.322 -22.957  0.00  0.00    -0.776 OA
HETATM    2  H   UNK     0       2.581  -0.465 -23.741  0.00  0.00     0.167 HD
ENDROOT
BRANCH   1   3
HETATM    3  C   UNK     0       2.654  -0.862 -21.952  0.00  0.00     0.139 C 
HETATM    4  O   UNK     0       3.630  -1.578 -22.105  0.00  0.00    -0.650 OA
BRANCH   3   5
HETATM    5  C   UNK     0       2.026  -0.634 -20.664  0.00  0.00     0.110 C 
BRANCH   5   6
HETATM    6  C   UNK     0       1.162   0.646 -20.544  0.00  0.00     0.010 C 
BRANCH   6   7
HETATM    7  C   UNK     0      -0.205   0.419 -19.854  0.00  0.00     0.001 C 
BRANCH   7   8
HETATM    8  C   UNK     0      -0.056   0.124 -18.342  0.00  0.00     0.000 C 
BRANCH   8   9
HETATM    9  C   UNK     0      -1.350  -0.432 -17.702  0.00  0.00     0.000 C 
BRANCH   9  10
HETATM   10  C   UNK     0      -2.051  -1.512 -18.563  0.00  0.00     0.004 C 
BRANCH  10  11
HETATM   11  C   UNK     0      -1.827  -2.941 -18.008  0.00  0.00     0.027 C 
BRANCH  11  12
HETATM   12  C   UNK     0      -0.882  -3.705 -18.802  0.00  0.00    -0.031 C 
HETATM   13  C   UNK     0       0.373  -4.073 -18.488  0.00  0.00    -0.031 C 
BRANCH  13  14
HETATM   14  C   UNK     0       1.120  -3.806 -17.271  0.00  0.00     0.027 C 
BRANCH  14  15
HETATM   15  C   UNK     0       1.963  -2.510 -17.361  0.00  0.00     0.004 C 
BRANCH  15  16
HETATM   16  C   UNK     0       3.359  -2.657 -16.707  0.00  0.00     0.000 C 
BRANCH  16  17
HETATM   17  C   UNK     0       3.434  -3.782 -15.648  0.00  0.00     0.000 C 
BRANCH  17  18
HETATM   18  C   UNK     0       3.566  -3.243 -14.203  0.00  0.00     0.000 C 
BRANCH  18  19
HETATM   19  C   UNK     0       3.086  -4.245 -13.123  0.00  0.00    -0.000 C 
BRANCH  19  20
HETATM   20  C   UNK     0       1.931  -3.686 -12.256  0.00  0.00    -0.005 C 
HETATM   21  C   UNK     0       2.323  -2.462 -11.402  0.00  0.00     0.005 C 
ENDBRANCH  19  20
ENDBRANCH  18  19
ENDBRANCH  17  18
ENDBRANCH  16  17
ENDBRANCH  15  16
ENDBRANCH  14  15
ENDBRANCH  13  14
ENDBRANCH  11  12
ENDBRANCH  10  11
ENDBRANCH   9  10
ENDBRANCH   8   9
ENDBRANCH   7   8
ENDBRANCH   6   7
ENDBRANCH   5   6
ENDBRANCH   3   5
ENDBRANCH   1   3
TORSDOF 16
ENDMDL
MODEL 9
REMARK VINA RESULT:      -3.4      4.228      6.746
REMARK  16 active torsions:
REMARK  status: ('A' for Active; 'I' for Inactive)
REMARK    1  A    between atoms: O_1  and  C_20 
REMARK    2  A    between atoms: C_3  and  C_4 
REMARK    3  A    between atoms: C_3  and  C_5 
REMARK    4  A    between atoms: C_4  and  C_8 
REMARK    5  A    between atoms: C_5  and  C_11 
REMARK    6  A    between atoms: C_6  and  C_7 
REMARK    7  A    between atoms: C_6  and  C_9 
REMARK    8  A    between atoms: C_7  and  C_10 
REMARK    9  A    between atoms: C_8  and  C_12 
REMARK   10  A    between atoms: C_9  and  C_13 
REMARK   11  A    between atoms: C_10  and  C_14 
REMARK   12  A    between atoms: C_11  and  C_15 
REMARK   13  A    between atoms: C_12  and  C_16 
REMARK   14  A    between atoms: C_13  and  C_17 
REMARK   15  A    between atoms: C_14  and  C_18 
REMARK   16  A    between atoms: C_18  and  C_20 
ROOT
HETATM    1  O   UNK     0       2.795  -0.323 -21.073  0.00  0.00    -0.776 OA
HETATM    2  H   UNK     0       3.149   0.481 -21.030  0.00  0.00     0.167 HD
ENDROOT
BRANCH   1   3
HETATM    3  C   UNK     0       1.644  -0.515 -20.702  0.00  0.00     0.139 C 
HETATM    4  O   UNK     0       0.763   0.001 -21.370  0.00  0.00    -0.650 OA
BRANCH   3   5
HETATM    5  C   UNK     0       1.384  -1.321 -19.524  0.00  0.00     0.110 C 
BRANCH   5   6
HETATM    6  C   UNK     0       1.690  -2.834 -19.652  0.00  0.00     0.010 C 
BRANCH   6   7
HETATM    7  C   UNK     0       0.613  -3.750 -19.022  0.00  0.00     0.001 C 
BRANCH   7   8
HETATM    8  C   UNK     0       0.954  -5.251 -19.181  0.00  0.00     0.000 C 
BRANCH   8   9
HETATM    9  C   UNK     0       1.029  -6.002 -17.832  0.00  0.00     0.000 C 
BRANCH   9  10
HETATM   10  C   UNK     0       0.832  -5.084 -16.601  0.00  0.00     0.004 C 
BRANCH  10  11
HETATM   11  C   UNK     0       2.163  -4.800 -15.860  0.00  0.00     0.027 C 
BRANCH  11  12
HETATM   12  C   UNK     0       2.593  -3.420 -15.995  0.00  0.00    -0.031 C 
HETATM   13  C   UNK     0       3.745  -2.946 -16.501  0.00  0.00    -0.031 C 
BRANCH  13  14
HETATM   14  C   UNK     0       4.868  -3.687 -17.048  0.00  0.00     0.027 C 
BRANCH  14  15
HETATM   15  C   UNK     0       6.236  -3.102 -16.615  0.00  0.00     0.004 C 
BRANCH  15  16
HETATM   16  C   UNK     0       7.074  -4.097 -15.774  0.00  0.00     0.000 C 
BRANCH  16  17
HETATM   17  C   UNK     0       6.285  -5.350 -15.326  0.00  0.00     0.000 C 
BRANCH  17  18
HETATM   18  C   UNK     0       6.093  -5.424 -13.791  0.00  0.00     0.000 C 
BRANCH  18  19
HETATM   19  C   UNK     0       4.696  -4.945 -13.320  0.00  0.00    -0.000 C 
BRANCH  19  20
HETATM   20  C   UNK     0       4.685  -3.456 -12.891  0.00  0.00    -0.005 C 
HETATM   21  C   UNK     0       3.321  -2.965 -12.365  0.00  0.00     0.005 C 
ENDBRANCH  19  20
ENDBRANCH  18  19
ENDBRANCH  17  18
ENDBRANCH  16  17
ENDBRANCH  15  16
ENDBRANCH  14  15
ENDBRANCH  13  14
ENDBRANCH  11  12
ENDBRANCH  10  11
ENDBRANCH   9  10
ENDBRANCH   8   9
ENDBRANCH   7   8
ENDBRANCH   6   7
ENDBRANCH   5   6
ENDBRANCH   3   5
ENDBRANCH   1   3
TORSDOF 16
ENDMDL
