MODEL 1
REMARK VINA RESULT:      -3.5      0.000      0.000
REMARK  16 active torsions:
REMARK  status: ('A' for Active; 'I' for Inactive)
REMARK    1  A    between atoms: O_1  and  C_20 
REMARK    2  A    between atoms: C_3  and  C_4 
REMARK    3  A    between atoms: C_3  and  C_5 
REMARK    4  A    between atoms: C_4  and  C_8 
REMARK    5  A    between atoms: C_5  and  C_11 
REMARK    6  A    between atoms: C_6  and  C_7 
REMARK    7  A    between atoms: C_6  and  C_9 
REMARK    8  A    between atoms: C_7  and  C_10 
REMARK    9  A    between atoms: C_8  and  C_12 
REMARK   10  A    between atoms: C_9  and  C_13 
REMARK   11  A    between atoms: C_10  and  C_14 
REMARK   12  A    between atoms: C_11  and  C_15 
REMARK   13  A    between atoms: C_12  and  C_16 
REMARK   14  A    between atoms: C_13  and  C_17 
REMARK   15  A    between atoms: C_14  and  C_18 
REMARK   16  A    between atoms: C_18  and  C_20 
ROOT
HETATM    1  O   UNK     0      -2.258  -1.224 -18.065  0.00  0.00    -0.776 OA
HETATM    2  H   UNK     0      -2.586  -1.948 -18.444  0.00  0.00     0.167 HD
ENDROOT
BRANCH   1   3
HETATM    3  C   UNK     0      -1.436  -0.534 -18.654  0.00  0.00     0.139 C 
HETATM    4  O   UNK     0      -1.798  -0.035 -19.707  0.00  0.00    -0.650 OA
BRANCH   3   5
HETATM    5  C   UNK     0      -0.111  -0.343 -18.094  0.00  0.00     0.110 C 
BRANCH   5   6
HETATM    6  C   UNK     0       1.003  -1.268 -18.645  0.00  0.00     0.010 C 
BRANCH   6   7
HETATM    7  C   UNK     0       1.309  -2.489 -17.745  0.00  0.00     0.001 C 
BRANCH   7   8
HETATM    8  C   UNK     0       1.067  -3.831 -18.476  0.00  0.00     0.000 C 
BRANCH   8   9
HETATM    9  C   UNK     0       1.520  -5.060 -17.655  0.00  0.00     0.000 C 
BRANCH   9  10
HETATM   10  C   UNK     0       1.049  -5.027 -16.180  0.00  0.00     0.004 C 
BRANCH  10  11
HETATM   11  C   UNK     0       2.190  -5.374 -15.191  0.00  0.00     0.027 C 
BRANCH  11  12
HETATM   12  C   UNK     0       2.502  -4.277 -14.293  0.00  0.00    -0.031 C 
HETATM   13  C   UNK     0       3.655  -3.596 -14.169  0.00  0.00    -0.031 C 
BRANCH  13  14
HETATM   14  C   UNK     0       4.897  -3.775 -14.900  0.00  0.00     0.027 C 
BRANCH  14  15
HETATM   15  C   UNK     0       4.915  -3.006 -16.245  0.00  0.00     0.004 C 
BRANCH  15  16
HETATM   16  C   UNK     0       4.863  -3.946 -17.474  0.00  0.00     0.000 C 
BRANCH  16  17
HETATM   17  C   UNK     0       5.303  -5.397 -17.165  0.00  0.00     0.000 C 
BRANCH  17  18
HETATM   18  C   UNK     0       6.529  -5.845 -17.997  0.00  0.00     0.000 C 
BRANCH  18  19
HETATM   19  C   UNK     0       7.784  -4.964 -17.774  0.00  0.00    -0.000 C 
BRANCH  19  20
HETATM   20  C   UNK     0       8.207  -4.889 -16.285  0.00  0.00    -0.005 C 
HETATM   21  C   UNK     0       8.801  -3.527 -15.869  0.00  0.00     0.005 C 
ENDBRANCH  19  20
ENDBRANCH  18  19
ENDBRANCH  17  18
ENDBRANCH  16  17
ENDBRANCH  15  16
ENDBRANCH  14  15
ENDBRANCH  13  14
ENDBRANCH  11  12
ENDBRANCH  10  11
ENDBRANCH   9  10
ENDBRANCH   8   9
ENDBRANCH   7   8
ENDBRANCH   6   7
ENDBRANCH   5   6
ENDBRANCH   3   5
ENDBRANCH   1   3
TORSDOF 16
ENDMDL
MODEL 2
REMARK VINA RESULT:      -3.4      3.960      6.772
REMARK  16 active torsions:
REMARK  status: ('A' for Active; 'I' for Inactive)
REMARK    1  A    between atoms: O_1  and  C_20 
REMARK    2  A    between atoms: C_3  and  C_4 
REMARK    3  A    between atoms: C_3  and  C_5 
REMARK    4  A    between atoms: C_4  and  C_8 
REMARK    5  A    between atoms: C_5  and  C_11 
REMARK    6  A    between atoms: C_6  and  C_7 
REMARK    7  A    between atoms: C_6  and  C_9 
REMARK    8  A    between atoms: C_7  and  C_10 
REMARK    9  A    between atoms: C_8  and  C_12 
REMARK   10  A    between atoms: C_9  and  C_13 
REMARK   11  A    between atoms: C_10  and  C_14 
REMARK   12  A    between atoms: C_11  and  C_15 
REMARK   13  A    between atoms: C_12  and  C_16 
REMARK   14  A    between atoms: C_13  and  C_17 
REMARK   15  A    between atoms: C_14  and  C_18 
REMARK   16  A    between atoms: C_18  and  C_20 
ROOT
HETATM    1  O   UNK     0       3.586  -2.274 -12.495  0.00  0.00    -0.776 OA
HETATM    2  H   UNK     0       3.631  -2.117 -13.359  0.00  0.00     0.167 HD
ENDROOT
BRANCH   1   3
HETATM    3  C   UNK     0       2.685  -2.965 -12.036  0.00  0.00     0.139 C 
HETATM    4  O   UNK     0       2.235  -2.624 -10.954  0.00  0.00    -0.650 OA
BRANCH   3   5
HETATM    5  C   UNK     0       2.205  -4.119 -12.772  0.00  0.00     0.110 C 
BRANCH   5   6
HETATM    6  C   UNK     0       2.499  -4.129 -14.293  0.00  0.00     0.010 C 
BRANCH   6   7
HETATM    7  C   UNK     0       3.219  -5.407 -14.786  0.00  0.00     0.001 C 
BRANCH   7   8
HETATM    8  C   UNK     0       4.206  -5.967 -13.733  0.00  0.00     0.000 C 
BRANCH   8   9
HETATM    9  C   UNK     0       4.476  -7.480 -13.899  0.00  0.00     0.000 C 
BRANCH   9  10
HETATM   10  C   UNK     0       3.545  -8.166 -14.929  0.00  0.00     0.004 C 
BRANCH  10  11
HETATM   11  C   UNK     0       4.173  -8.219 -16.344  0.00  0.00     0.027 C 
BRANCH  11  12
HETATM   12  C   UNK     0       3.735  -9.375 -17.105  0.00  0.00    -0.031 C 
HETATM   13  C   UNK     0       2.522  -9.624 -17.629  0.00  0.00    -0.031 C 
BRANCH  13  14
HETATM   14  C   UNK     0       1.325  -8.803 -17.576  0.00  0.00     0.027 C 
BRANCH  14  15
HETATM   15  C   UNK     0       1.396  -7.582 -18.527  0.00  0.00     0.004 C 
BRANCH  15  16
HETATM   16  C   UNK     0       1.213  -6.234 -17.786  0.00  0.00     0.000 C 
BRANCH  16  17
HETATM   17  C   UNK     0       2.073  -5.086 -18.364  0.00  0.00     0.000 C 
BRANCH  17  18
HETATM   18  C   UNK     0       1.676  -3.697 -17.807  0.00  0.00     0.000 C 
BRANCH  18  19
HETATM   19  C   UNK     0       0.255  -3.245 -18.226  0.00  0.00    -0.000 C 
BRANCH  19  20
HETATM   20  C   UNK     0       0.018  -3.349 -19.754  0.00  0.00    -0.005 C 
HETATM   21  C   UNK     0      -1.248  -2.616 -20.245  0.00  0.00     0.005 C 
ENDBRANCH  19  20
ENDBRANCH  18  19
ENDBRANCH  17  18
ENDBRANCH  16  17
ENDBRANCH  15  16
ENDBRANCH  14  15
ENDBRANCH  13  14
ENDBRANCH  11  12
ENDBRANCH  10  11
ENDBRANCH   9  10
ENDBRANCH   8   9
ENDBRANCH   7   8
ENDBRANCH   6   7
ENDBRANCH   5   6
ENDBRANCH   3   5
ENDBRANCH   1   3
TORSDOF 16
ENDMDL
MODEL 3
REMARK VINA RESULT:      -3.3      4.145      6.923
REMARK  16 active torsions:
REMARK  status: ('A' for Active; 'I' for Inactive)
REMARK    1  A    between atoms: O_1  and  C_20 
REMARK    2  A    between atoms: C_3  and  C_4 
REMARK    3  A    between atoms: C_3  and  C_5 
REMARK    4  A    between atoms: C_4  and  C_8 
REMARK    5  A    between atoms: C_5  and  C_11 
REMARK    6  A    between atoms: C_6  and  C_7 
REMARK    7  A    between atoms: C_6  and  C_9 
REMARK    8  A    between atoms: C_7  and  C_10 
REMARK    9  A    between atoms: C_8  and  C_12 
REMARK   10  A    between atoms: C_9  and  C_13 
REMARK   11  A    between atoms: C_10  and  C_14 
REMARK   12  A    between atoms: C_11  and  C_15 
REMARK   13  A    between atoms: C_12  and  C_16 
REMARK   14  A    between atoms: C_13  and  C_17 
REMARK   15  A    between atoms: C_14  and  C_18 
REMARK   16  A    between atoms: C_18  and  C_20 
ROOT
HETATM    1  O   UNK     0       2.998 -11.150 -17.653  0.00  0.00    -0.776 OA
HETATM    2  H   UNK     0       2.199 -11.451 -17.442  0.00  0.00     0.167 HD
ENDROOT
BRANCH   1   3
HETATM    3  C   UNK     0       3.260  -9.958 -17.549  0.00  0.00     0.139 C 
HETATM    4  O   UNK     0       3.993  -9.486 -18.403  0.00  0.00    -0.650 OA
BRANCH   3   5
HETATM    5  C   UNK     0       2.705  -9.184 -16.456  0.00  0.00     0.110 C 
BRANCH   5   6
HETATM    6  C   UNK     0       2.480  -7.676 -16.733  0.00  0.00     0.010 C 
BRANCH   6   7
HETATM    7  C   UNK     0       3.112  -6.741 -15.675  0.00  0.00     0.001 C 
BRANCH   7   8
HETATM    8  C   UNK     0       3.969  -7.516 -14.645  0.00  0.00     0.000 C 
BRANCH   8   9
HETATM    9  C   UNK     0       4.806  -6.590 -13.732  0.00  0.00     0.000 C 
BRANCH   9  10
HETATM   10  C   UNK     0       4.153  -5.207 -13.489  0.00  0.00     0.004 C 
BRANCH  10  11
HETATM   11  C   UNK     0       5.157  -4.043 -13.677  0.00  0.00     0.027 C 
BRANCH  11  12
HETATM   12  C   UNK     0       5.560  -3.873 -15.062  0.00  0.00    -0.031 C 
HETATM   13  C   UNK     0       4.898  -3.261 -16.059  0.00  0.00    -0.031 C 
BRANCH  13  14
HETATM   14  C   UNK     0       3.603  -2.604 -16.020  0.00  0.00     0.027 C 
BRANCH  14  15
HETATM   15  C   UNK     0       2.477  -3.468 -16.643  0.00  0.00     0.004 C 
BRANCH  15  16
HETATM   16  C   UNK     0       2.317  -3.236 -18.165  0.00  0.00     0.000 C 
BRANCH  16  17
HETATM   17  C   UNK     0       2.319  -4.541 -18.996  0.00  0.00     0.000 C 
BRANCH  17  18
HETATM   18  C   UNK     0       0.948  -5.260 -18.992  0.00  0.00     0.000 C 
BRANCH  18  19
HETATM   19  C   UNK     0      -0.258  -4.294 -19.104  0.00  0.00    -0.000 C 
BRANCH  19  20
HETATM   20  C   UNK     0      -1.108  -4.243 -17.811  0.00  0.00    -0.005 C 
HETATM   21  C   UNK     0      -1.122  -5.565 -17.016  0.00  0.00     0.005 C 
ENDBRANCH  19  20
ENDBRANCH  18  19
ENDBRANCH  17  18
ENDBRANCH  16  17
ENDBRANCH  15  16
ENDBRANCH  14  15
ENDBRANCH  13  14
ENDBRANCH  11  12
ENDBRANCH  10  11
ENDBRANCH   9  10
ENDBRANCH   8   9
ENDBRANCH   7   8
ENDBRANCH   6   7
ENDBRANCH   5   6
ENDBRANCH   3   5
ENDBRANCH   1   3
TORSDOF 16
ENDMDL
MODEL 4
REMARK VINA RESULT:      -3.2     21.607     24.326
REMARK  16 active torsions:
REMARK  status: ('A' for Active; 'I' for Inactive)
REMARK    1  A    between atoms: O_1  and  C_20 
REMARK    2  A    between atoms: C_3  and  C_4 
REMARK    3  A    between atoms: C_3  and  C_5 
REMARK    4  A    between atoms: C_4  and  C_8 
REMARK    5  A    between atoms: C_5  and  C_11 
REMARK    6  A    between atoms: C_6  and  C_7 
REMARK    7  A    between atoms: C_6  and  C_9 
REMARK    8  A    between atoms: C_7  and  C_10 
REMARK    9  A    between atoms: C_8  and  C_12 
REMARK   10  A    between atoms: C_9  and  C_13 
REMARK   11  A    between atoms: C_10  and  C_14 
REMARK   12  A    between atoms: C_11  and  C_15 
REMARK   13  A    between atoms: C_12  and  C_16 
REMARK   14  A    between atoms: C_13  and  C_17 
REMARK   15  A    between atoms: C_14  and  C_18 
REMARK   16  A    between atoms: C_18  and  C_20 
ROOT
HETATM    1  O   UNK     0       2.880  -0.944   7.961  0.00  0.00    -0.776 OA
HETATM    2  H   UNK     0       3.600  -0.619   7.573  0.00  0.00     0.167 HD
ENDROOT
BRANCH   1   3
HETATM    3  C   UNK     0       1.890  -1.223   7.297  0.00  0.00     0.139 C 
HETATM    4  O   UNK     0       0.818  -1.192   7.879  0.00  0.00    -0.650 OA
BRANCH   3   5
HETATM    5  C   UNK     0       2.028  -1.566   5.895  0.00  0.00     0.110 C 
BRANCH   5   6
HETATM    6  C   UNK     0       2.157  -0.377   4.911  0.00  0.00     0.010 C 
BRANCH   6   7
HETATM    7  C   UNK     0       1.364  -0.561   3.594  0.00  0.00     0.001 C 
BRANCH   7   8
HETATM    8  C   UNK     0      -0.048   0.069   3.668  0.00  0.00     0.000 C 
BRANCH   8   9
HETATM    9  C   UNK     0      -0.231   1.006   4.884  0.00  0.00     0.000 C 
BRANCH   9  10
HETATM   10  C   UNK     0      -1.601   0.846   5.588  0.00  0.00     0.004 C 
BRANCH  10  11
HETATM   11  C   UNK     0      -2.435   2.152   5.554  0.00  0.00     0.027 C 
BRANCH  11  12
HETATM   12  C   UNK     0      -3.529   2.090   4.602  0.00  0.00    -0.031 C 
HETATM   13  C   UNK     0      -3.589   2.599   3.359  0.00  0.00    -0.031 C 
BRANCH  13  14
HETATM   14  C   UNK     0      -2.576   3.348   2.635  0.00  0.00     0.027 C 
BRANCH  14  15
HETATM   15  C   UNK     0      -3.165   4.553   1.859  0.00  0.00     0.004 C 
BRANCH  15  16
HETATM   16  C   UNK     0      -2.577   5.908   2.322  0.00  0.00     0.000 C 
BRANCH  16  17
HETATM   17  C   UNK     0      -2.613   6.111   3.855  0.00  0.00     0.000 C 
BRANCH  17  18
HETATM   18  C   UNK     0      -3.960   6.689   4.355  0.00  0.00     0.000 C 
BRANCH  18  19
HETATM   19  C   UNK     0      -5.038   5.606   4.615  0.00  0.00    -0.000 C 
BRANCH  19  20
HETATM   20  C   UNK     0      -5.510   5.572   6.090  0.00  0.00    -0.005 C 
HETATM   21  C   UNK     0      -5.964   4.178   6.572  0.00  0.00     0.005 C 
ENDBRANCH  19  20
ENDBRANCH  18  19
ENDBRANCH  17  18
ENDBRANCH  16  17
ENDBRANCH  15  16
ENDBRANCH  14  15
ENDBRANCH  13  14
ENDBRANCH  11  12
ENDBRANCH  10  11
ENDBRANCH   9  10
ENDBRANCH   8   9
ENDBRANCH   7   8
ENDBRANCH   6   7
ENDBRANCH   5   6
ENDBRANCH   3   5
ENDBRANCH   1   3
TORSDOF 16
ENDMDL
MODEL 5
REMARK VINA RESULT:      -3.2      3.606      4.757
REMARK  16 active torsions:
REMARK  status: ('A' for Active; 'I' for Inactive)
REMARK    1  A    between atoms: O_1  and  C_20 
REMARK    2  A    between atoms: C_3  and  C_4 
REMARK    3  A    between atoms: C_3  and  C_5 
REMARK    4  A    between atoms: C_4  and  C_8 
REMARK    5  A    between atoms: C_5  and  C_11 
REMARK    6  A    between atoms: C_6  and  C_7 
REMARK    7  A    between atoms: C_6  and  C_9 
REMARK    8  A    between atoms: C_7  and  C_10 
REMARK    9  A    between atoms: C_8  and  C_12 
REMARK   10  A    between atoms: C_9  and  C_13 
REMARK   11  A    between atoms: C_10  and  C_14 
REMARK   12  A    between atoms: C_11  and  C_15 
REMARK   13  A    between atoms: C_12  and  C_16 
REMARK   14  A    between atoms: C_13  and  C_17 
REMARK   15  A    between atoms: C_14  and  C_18 
REMARK   16  A    between atoms: C_18  and  C_20 
ROOT
HETATM    1  O   UNK     0       1.649  -8.855 -20.374  0.00  0.00    -0.776 OA
HETATM    2  H   UNK     0       2.454  -8.792 -20.722  0.00  0.00     0.167 HD
ENDROOT
BRANCH   1   3
HETATM    3  C   UNK     0       1.499  -8.883 -19.159  0.00  0.00     0.139 C 
HETATM    4  O   UNK     0       0.759  -9.748 -18.721  0.00  0.00    -0.650 OA
BRANCH   3   5
HETATM    5  C   UNK     0       2.187  -7.921 -18.318  0.00  0.00     0.110 C 
BRANCH   5   6
HETATM    6  C   UNK     0       1.286  -6.975 -17.486  0.00  0.00     0.010 C 
BRANCH   6   7
HETATM    7  C   UNK     0       1.560  -5.471 -17.728  0.00  0.00     0.001 C 
BRANCH   7   8
HETATM    8  C   UNK     0       1.662  -4.674 -16.405  0.00  0.00     0.000 C 
BRANCH   8   9
HETATM    9  C   UNK     0       2.701  -3.530 -16.465  0.00  0.00     0.000 C 
BRANCH   9  10
HETATM   10  C   UNK     0       3.458  -3.311 -15.132  0.00  0.00     0.004 C 
BRANCH  10  11
HETATM   11  C   UNK     0       2.890  -4.183 -13.984  0.00  0.00     0.027 C 
BRANCH  11  12
HETATM   12  C   UNK     0       3.920  -4.943 -13.299  0.00  0.00    -0.031 C 
HETATM   13  C   UNK     0       4.479  -6.112 -13.658  0.00  0.00    -0.031 C 
BRANCH  13  14
HETATM   14  C   UNK     0       4.202  -6.929 -14.826  0.00  0.00     0.027 C 
BRANCH  14  15
HETATM   15  C   UNK     0       5.382  -6.954 -15.830  0.00  0.00     0.004 C 
BRANCH  15  16
HETATM   16  C   UNK     0       5.132  -6.062 -17.071  0.00  0.00     0.000 C 
BRANCH  16  17
HETATM   17  C   UNK     0       6.211  -4.974 -17.283  0.00  0.00     0.000 C 
BRANCH  17  18
HETATM   18  C   UNK     0       6.866  -4.509 -15.960  0.00  0.00     0.000 C 
BRANCH  18  19
HETATM   19  C   UNK     0       8.367  -4.150 -16.106  0.00  0.00    -0.000 C 
BRANCH  19  20
HETATM   20  C   UNK     0       9.264  -4.896 -15.086  0.00  0.00    -0.005 C 
HETATM   21  C   UNK     0       8.540  -6.020 -14.317  0.00  0.00     0.005 C 
ENDBRANCH  19  20
ENDBRANCH  18  19
ENDBRANCH  17  18
ENDBRANCH  16  17
ENDBRANCH  15  16
ENDBRANCH  14  15
ENDBRANCH  13  14
ENDBRANCH  11  12
ENDBRANCH  10  11
ENDBRANCH   9  10
ENDBRANCH   8   9
ENDBRANCH   7   8
ENDBRANCH   6   7
ENDBRANCH   5   6
ENDBRANCH   3   5
ENDBRANCH   1   3
TORSDOF 16
ENDMDL
MODEL 6
REMARK VINA RESULT:      -3.2     21.136     22.172
REMARK  16 active torsions:
REMARK  status: ('A' for Active; 'I' for Inactive)
REMARK    1  A    between atoms: O_1  and  C_20 
REMARK    2  A    between atoms: C_3  and  C_4 
REMARK    3  A    between atoms: C_3  and  C_5 
REMARK    4  A    between atoms: C_4  and  C_8 
REMARK    5  A    between atoms: C_5  and  C_11 
REMARK    6  A    between atoms: C_6  and  C_7 
REMARK    7  A    between atoms: C_6  and  C_9 
REMARK    8  A    between atoms: C_7  and  C_10 
REMARK    9  A    between atoms: C_8  and  C_12 
REMARK   10  A    between atoms: C_9  and  C_13 
REMARK   11  A    between atoms: C_10  and  C_14 
REMARK   12  A    between atoms: C_11  and  C_15 
REMARK   13  A    between atoms: C_12  and  C_16 
REMARK   14  A    between atoms: C_13  and  C_17 
REMARK   15  A    between atoms: C_14  and  C_18 
REMARK   16  A    between atoms: C_18  and  C_20 
ROOT
HETATM    1  O   UNK     0      -2.521   7.398   0.998  0.00  0.00    -0.776 OA
HETATM    2  H   UNK     0      -2.414   7.819   0.233  0.00  0.00     0.167 HD
ENDROOT
BRANCH   1   3
HETATM    3  C   UNK     0      -3.120   6.331   1.040  0.00  0.00     0.139 C 
HETATM    4  O   UNK     0      -4.101   6.229   0.321  0.00  0.00    -0.650 OA
BRANCH   3   5
HETATM    5  C   UNK     0      -2.654   5.268   1.910  0.00  0.00     0.110 C 
BRANCH   5   6
HETATM    6  C   UNK     0      -3.731   4.275   2.412  0.00  0.00     0.010 C 
BRANCH   6   7
HETATM    7  C   UNK     0      -3.162   2.917   2.889  0.00  0.00     0.001 C 
BRANCH   7   8
HETATM    8  C   UNK     0      -3.672   2.531   4.298  0.00  0.00     0.000 C 
BRANCH   8   9
HETATM    9  C   UNK     0      -2.531   2.178   5.280  0.00  0.00     0.000 C 
BRANCH   9  10
HETATM   10  C   UNK     0      -1.136   2.655   4.805  0.00  0.00     0.004 C 
BRANCH  10  11
HETATM   11  C   UNK     0      -0.234   1.478   4.358  0.00  0.00     0.027 C 
BRANCH  11  12
HETATM   12  C   UNK     0      -0.192   0.405   5.335  0.00  0.00    -0.031 C 
HETATM   13  C   UNK     0       0.650   0.247   6.371  0.00  0.00    -0.031 C 
BRANCH  13  14
HETATM   14  C   UNK     0       1.743   1.105   6.792  0.00  0.00     0.027 C 
BRANCH  14  15
HETATM   15  C   UNK     0       3.130   0.551   6.379  0.00  0.00     0.004 C 
BRANCH  15  16
HETATM   16  C   UNK     0       3.182   0.112   4.895  0.00  0.00     0.000 C 
BRANCH  16  17
HETATM   17  C   UNK     0       4.015   1.057   3.996  0.00  0.00     0.000 C 
BRANCH  17  18
HETATM   18  C   UNK     0       4.015   2.522   4.498  0.00  0.00     0.000 C 
BRANCH  18  19
HETATM   19  C   UNK     0       2.991   3.426   3.767  0.00  0.00    -0.000 C 
BRANCH  19  20
HETATM   20  C   UNK     0       3.633   4.711   3.186  0.00  0.00    -0.005 C 
HETATM   21  C   UNK     0       2.677   5.553   2.315  0.00  0.00     0.005 C 
ENDBRANCH  19  20
ENDBRANCH  18  19
ENDBRANCH  17  18
ENDBRANCH  16  17
ENDBRANCH  15  16
ENDBRANCH  14  15
ENDBRANCH  13  14
ENDBRANCH  11  12
ENDBRANCH  10  11
ENDBRANCH   9  10
ENDBRANCH   8   9
ENDBRANCH   7   8
ENDBRANCH   6   7
ENDBRANCH   5   6
ENDBRANCH   3   5
ENDBRANCH   1   3
TORSDOF 16
ENDMDL
MODEL 7
REMARK VINA RESULT:      -3.1     21.817     23.937
REMARK  16 active torsions:
REMARK  status: ('A' for Active; 'I' for Inactive)
REMARK    1  A    between atoms: O_1  and  C_20 
REMARK    2  A    between atoms: C_3  and  C_4 
REMARK    3  A    between atoms: C_3  and  C_5 
REMARK    4  A    between atoms: C_4  and  C_8 
REMARK    5  A    between atoms: C_5  and  C_11 
REMARK    6  A    between atoms: C_6  and  C_7 
REMARK    7  A    between atoms: C_6  and  C_9 
REMARK    8  A    between atoms: C_7  and  C_10 
REMARK    9  A    between atoms: C_8  and  C_12 
REMARK   10  A    between atoms: C_9  and  C_13 
REMARK   11  A    between atoms: C_10  and  C_14 
REMARK   12  A    between atoms: C_11  and  C_15 
REMARK   13  A    between atoms: C_12  and  C_16 
REMARK   14  A    between atoms: C_13  and  C_17 
REMARK   15  A    between atoms: C_14  and  C_18 
REMARK   16  A    between atoms: C_18  and  C_20 
ROOT
HETATM    1  O   UNK     0      -4.184   4.676   7.795  0.00  0.00    -0.776 OA
HETATM    2  H   UNK     0      -3.812   4.325   7.080  0.00  0.00     0.167 HD
ENDROOT
BRANCH   1   3
HETATM    3  C   UNK     0      -5.351   5.044   7.770  0.00  0.00     0.139 C 
HETATM    4  O   UNK     0      -5.841   5.374   8.838  0.00  0.00    -0.650 OA
BRANCH   3   5
HETATM    5  C   UNK     0      -6.079   5.073   6.516  0.00  0.00     0.110 C 
BRANCH   5   6
HETATM    6  C   UNK     0      -6.131   6.440   5.789  0.00  0.00     0.010 C 
BRANCH   6   7
HETATM    7  C   UNK     0      -5.346   6.473   4.455  0.00  0.00     0.001 C 
BRANCH   7   8
HETATM    8  C   UNK     0      -4.260   7.575   4.442  0.00  0.00     0.000 C 
BRANCH   8   9
HETATM    9  C   UNK     0      -4.326   8.478   3.188  0.00  0.00     0.000 C 
BRANCH   9  10
HETATM   10  C   UNK     0      -3.220   8.173   2.148  0.00  0.00     0.004 C 
BRANCH  10  11
HETATM   11  C   UNK     0      -3.625   7.035   1.177  0.00  0.00     0.027 C 
BRANCH  11  12
HETATM   12  C   UNK     0      -2.640   5.970   1.126  0.00  0.00    -0.031 C 
HETATM   13  C   UNK     0      -2.764   4.693   1.528  0.00  0.00    -0.031 C 
BRANCH  13  14
HETATM   14  C   UNK     0      -3.916   4.036   2.120  0.00  0.00     0.027 C 
BRANCH  14  15
HETATM   15  C   UNK     0      -3.539   3.146   3.331  0.00  0.00     0.004 C 
BRANCH  15  16
HETATM   16  C   UNK     0      -2.039   2.761   3.347  0.00  0.00     0.000 C 
BRANCH  16  17
HETATM   17  C   UNK     0      -1.721   1.536   4.237  0.00  0.00     0.000 C 
BRANCH  17  18
HETATM   18  C   UNK     0      -0.202   1.327   4.455  0.00  0.00     0.000 C 
BRANCH  18  19
HETATM   19  C   UNK     0       0.314  -0.041   3.943  0.00  0.00    -0.000 C 
BRANCH  19  20
HETATM   20  C   UNK     0       1.853  -0.179   4.047  0.00  0.00    -0.005 C 
HETATM   21  C   UNK     0       2.320  -1.417   4.841  0.00  0.00     0.005 C 
ENDBRANCH  19  20
ENDBRANCH  18  19
ENDBRANCH  17  18
ENDBRANCH  16  17
ENDBRANCH  15  16
ENDBRANCH  14  15
ENDBRANCH  13  14
ENDBRANCH  11  12
ENDBRANCH  10  11
ENDBRANCH   9  10
ENDBRANCH   8   9
ENDBRANCH   7   8
ENDBRANCH   6   7
ENDBRANCH   5   6
ENDBRANCH   3   5
ENDBRANCH   1   3
TORSDOF 16
ENDMDL
MODEL 8
REMARK VINA RESULT:      -3.1     22.560     24.931
REMARK  16 active torsions:
REMARK  status: ('A' for Active; 'I' for Inactive)
REMARK    1  A    between atoms: O_1  and  C_20 
REMARK    2  A    between atoms: C_3  and  C_4 
REMARK    3  A    between atoms: C_3  and  C_5 
REMARK    4  A    between atoms: C_4  and  C_8 
REMARK    5  A    between atoms: C_5  and  C_11 
REMARK    6  A    between atoms: C_6  and  C_7 
REMARK    7  A    between atoms: C_6  and  C_9 
REMARK    8  A    between atoms: C_7  and  C_10 
REMARK    9  A    between atoms: C_8  and  C_12 
REMARK   10  A    between atoms: C_9  and  C_13 
REMARK   11  A    between atoms: C_10  and  C_14 
REMARK   12  A    between atoms: C_11  and  C_15 
REMARK   13  A    between atoms: C_12  and  C_16 
REMARK   14  A    between atoms: C_13  and  C_17 
REMARK   15  A    between atoms: C_14  and  C_18 
REMARK   16  A    between atoms: C_18  and  C_20 
ROOT
HETATM    1  O   UNK     0      -6.950   4.249   9.920  0.00  0.00    -0.776 OA
HETATM    2  H   UNK     0      -7.641   4.791   9.975  0.00  0.00     0.167 HD
ENDROOT
BRANCH   1   3
HETATM    3  C   UNK     0      -6.639   3.748   8.847  0.00  0.00     0.139 C 
HETATM    4  O   UNK     0      -5.797   2.865   8.883  0.00  0.00    -0.650 OA
BRANCH   3   5
HETATM    5  C   UNK     0      -7.265   4.205   7.621  0.00  0.00     0.110 C 
BRANCH   5   6
HETATM    6  C   UNK     0      -6.593   5.413   6.922  0.00  0.00     0.010 C 
BRANCH   6   7
HETATM    7  C   UNK     0      -5.367   5.037   6.056  0.00  0.00     0.001 C 
BRANCH   7   8
HETATM    8  C   UNK     0      -5.304   5.856   4.744  0.00  0.00     0.000 C 
BRANCH   8   9
HETATM    9  C   UNK     0      -4.360   7.078   4.836  0.00  0.00     0.000 C 
BRANCH   9  10
HETATM   10  C   UNK     0      -4.533   8.083   3.671  0.00  0.00     0.004 C 
BRANCH  10  11
HETATM   11  C   UNK     0      -4.995   7.392   2.363  0.00  0.00     0.027 C 
BRANCH  11  12
HETATM   12  C   UNK     0      -3.884   7.040   1.497  0.00  0.00    -0.031 C 
HETATM   13  C   UNK     0      -3.578   5.842   0.969  0.00  0.00    -0.031 C 
BRANCH  13  14
HETATM   14  C   UNK     0      -4.277   4.578   1.123  0.00  0.00     0.027 C 
BRANCH  14  15
HETATM   15  C   UNK     0      -3.477   3.553   1.966  0.00  0.00     0.004 C 
BRANCH  15  16
HETATM   16  C   UNK     0      -2.670   4.216   3.109  0.00  0.00     0.000 C 
BRANCH  16  17
HETATM   17  C   UNK     0      -1.597   3.291   3.730  0.00  0.00     0.000 C 
BRANCH  17  18
HETATM   18  C   UNK     0      -2.173   1.934   4.204  0.00  0.00     0.000 C 
BRANCH  18  19
HETATM   19  C   UNK     0      -3.239   2.070   5.319  0.00  0.00    -0.000 C 
BRANCH  19  20
HETATM   20  C   UNK     0      -4.600   1.440   4.929  0.00  0.00    -0.005 C 
HETATM   21  C   UNK     0      -4.544   0.560   3.662  0.00  0.00     0.005 C 
ENDBRANCH  19  20
ENDBRANCH  18  19
ENDBRANCH  17  18
ENDBRANCH  16  17
ENDBRANCH  15  16
ENDBRANCH  14  15
ENDBRANCH  13  14
ENDBRANCH  11  12
ENDBRANCH  10  11
ENDBRANCH   9  10
ENDBRANCH   8   9
ENDBRANCH   7   8
ENDBRANCH   6   7
ENDBRANCH   5   6
ENDBRANCH   3   5
ENDBRANCH   1   3
TORSDOF 16
ENDMDL
MODEL 9
REMARK VINA RESULT:      -3.1     21.375     23.260
REMARK  16 active torsions:
REMARK  status: ('A' for Active; 'I' for Inactive)
REMARK    1  A    between atoms: O_1  and  C_20 
REMARK    2  A    between atoms: C_3  and  C_4 
REMARK    3  A    between atoms: C_3  and  C_5 
REMARK    4  A    between atoms: C_4  and  C_8 
REMARK    5  A    between atoms: C_5  and  C_11 
REMARK    6  A    between atoms: C_6  and  C_7 
REMARK    7  A    between atoms: C_6  and  C_9 
REMARK    8  A    between atoms: C_7  and  C_10 
REMARK    9  A    between atoms: C_8  and  C_12 
REMARK   10  A    between atoms: C_9  and  C_13 
REMARK   11  A    between atoms: C_10  and  C_14 
REMARK   12  A    between atoms: C_11  and  C_15 
REMARK   13  A    between atoms: C_12  and  C_16 
REMARK   14  A    between atoms: C_13  and  C_17 
REMARK   15  A    between atoms: C_14  and  C_18 
REMARK   16  A    between atoms: C_18  and  C_20 
ROOT
HETATM    1  O   UNK     0       8.056   0.958   5.999  0.00  0.00    -0.776 OA
HETATM    2  H   UNK     0       8.613   1.380   5.465  0.00  0.00     0.167 HD
ENDROOT
BRANCH   1   3
HETATM    3  C   UNK     0       7.312   0.090   5.560  0.00  0.00     0.139 C 
HETATM    4  O   UNK     0       7.179  -0.910   6.246  0.00  0.00    -0.650 OA
BRANCH   3   5
HETATM    5  C   UNK     0       6.641   0.282   4.288  0.00  0.00     0.110 C 
BRANCH   5   6
HETATM    6  C   UNK     0       5.291   1.041   4.336  0.00  0.00     0.010 C 
BRANCH   6   7
HETATM    7  C   UNK     0       4.106   0.185   4.844  0.00  0.00     0.001 C 
BRANCH   7   8
HETATM    8  C   UNK     0       2.838   0.366   3.975  0.00  0.00     0.000 C 
BRANCH   8   9
HETATM    9  C   UNK     0       1.806  -0.770   4.163  0.00  0.00     0.000 C 
BRANCH   9  10
HETATM   10  C   UNK     0       0.548  -0.616   3.274  0.00  0.00     0.004 C 
BRANCH  10  11
HETATM   11  C   UNK     0      -0.580   0.174   3.985  0.00  0.00     0.027 C 
BRANCH  11  12
HETATM   12  C   UNK     0      -1.633  -0.690   4.487  0.00  0.00    -0.031 C 
HETATM   13  C   UNK     0      -2.947  -0.664   4.200  0.00  0.00    -0.031 C 
BRANCH  13  14
HETATM   14  C   UNK     0      -3.665   0.232   3.311  0.00  0.00     0.027 C 
BRANCH  14  15
HETATM   15  C   UNK     0      -4.103   1.543   4.012  0.00  0.00     0.004 C 
BRANCH  15  16
HETATM   16  C   UNK     0      -3.035   2.661   3.913  0.00  0.00     0.000 C 
BRANCH  16  17
HETATM   17  C   UNK     0      -3.585   3.999   3.365  0.00  0.00     0.000 C 
BRANCH  17  18
HETATM   18  C   UNK     0      -3.167   4.268   1.899  0.00  0.00     0.000 C 
BRANCH  18  19
HETATM   19  C   UNK     0      -4.163   5.168   1.127  0.00  0.00    -0.000 C 
BRANCH  19  20
HETATM   20  C   UNK     0      -4.583   6.425   1.930  0.00  0.00    -0.005 C 
HETATM   21  C   UNK     0      -3.934   7.734   1.433  0.00  0.00     0.005 C 
ENDBRANCH  19  20
ENDBRANCH  18  19
ENDBRANCH  17  18
ENDBRANCH  16  17
ENDBRANCH  15  16
ENDBRANCH  14  15
ENDBRANCH  13  14
ENDBRANCH  11  12
ENDBRANCH  10  11
ENDBRANCH   9  10
ENDBRANCH   8   9
ENDBRANCH   7   8
ENDBRANCH   6   7
ENDBRANCH   5   6
ENDBRANCH   3   5
ENDBRANCH   1   3
TORSDOF 16
ENDMDL
