5280450
  Marvin  12300716493D          

 52 51  0  0  0  0            999 V2000
    5.6768   -4.0308    3.3413 O   0  0  0  0  0  0  0  0  0  0  0  0
    3.7863   -4.4611    4.0884 O   0  0  0  0  0  0  0  0  0  0  0  0
    0.2672   -2.5054    0.6778 C   0  0  0  0  0  0  0  0  0  0  0  0
   -0.2855   -1.8164   -0.5894 C   0  0  0  0  0  0  0  0  0  0  0  0
    1.8134   -2.5167    0.7214 C   0  0  0  0  0  0  0  0  0  0  0  0
   -1.8312   -1.8145   -0.6528 C   0  0  0  0  0  0  0  0  0  0  0  0
    2.3544   -3.2391    1.9770 C   0  0  0  0  0  0  0  0  0  0  0  0
   -2.3694   -1.2313   -1.9837 C   0  0  0  0  0  0  0  0  0  0  0  0
    3.9010   -3.2827    2.0506 C   0  0  0  0  0  0  0  0  0  0  0  0
   -0.8028    3.3074   -0.0242 C   0  0  0  0  0  0  0  0  0  0  0  0
    0.6822    2.9473   -0.2927 C   0  0  0  0  0  0  0  0  0  0  0  0
   -3.8036   -1.0201   -1.9396 C   0  0  0  0  0  0  0  0  0  0  0  0
   -1.7154    2.0700    0.1707 C   0  0  0  0  0  0  0  0  0  0  0  0
    1.6030    4.1867   -0.4247 C   0  0  0  0  0  0  0  0  0  0  0  0
   -4.4833    0.1403   -1.9279 C   0  0  0  0  0  0  0  0  0  0  0  0
   -3.9753    1.5020   -1.9661 C   0  0  0  0  0  0  0  0  0  0  0  0
   -3.1282    2.4023    0.2348 C   0  0  0  0  0  0  0  0  0  0  0  0
    4.4633   -3.9517    3.2068 C   0  0  0  0  0  0  0  0  0  0  0  0
   -4.0919    2.1496   -0.6699 C   0  0  0  0  0  0  0  0  0  0  0  0
    3.0853    3.8461   -0.6879 C   0  0  0  0  0  0  0  0  0  0  0  0
   -0.1150   -1.9892    1.5636 H   0  0  0  0  0  0  0  0  0  0  0  0
   -0.0988   -3.5359    0.7083 H   0  0  0  0  0  0  0  0  0  0  0  0
    0.0735   -0.7832   -0.6126 H   0  0  0  0  0  0  0  0  0  0  0  0
    0.1092   -2.3267   -1.4724 H   0  0  0  0  0  0  0  0  0  0  0  0
    2.1815   -1.4865    0.7079 H   0  0  0  0  0  0  0  0  0  0  0  0
    2.1944   -3.0180   -0.1733 H   0  0  0  0  0  0  0  0  0  0  0  0
   -2.2079   -1.2360    0.1972 H   0  0  0  0  0  0  0  0  0  0  0  0
   -2.2005   -2.8388   -0.5411 H   0  0  0  0  0  0  0  0  0  0  0  0
    1.9693   -2.7310    2.8662 H   0  0  0  0  0  0  0  0  0  0  0  0
    1.9711   -4.2640    1.9834 H   0  0  0  0  0  0  0  0  0  0  0  0
   -2.1456   -1.9271   -2.7964 H   0  0  0  0  0  0  0  0  0  0  0  0
   -1.8175   -0.3257   -2.2289 H   0  0  0  0  0  0  0  0  0  0  0  0
    4.2771   -2.2559    2.0367 H   0  0  0  0  0  0  0  0  0  0  0  0
    4.2760   -3.7848    1.1542 H   0  0  0  0  0  0  0  0  0  0  0  0
   -1.1696    3.8987   -0.8688 H   0  0  0  0  0  0  0  0  0  0  0  0
   -0.8653    3.9348    0.8700 H   0  0  0  0  0  0  0  0  0  0  0  0
    0.7418    2.3653   -1.2174 H   0  0  0  0  0  0  0  0  0  0  0  0
    1.0495    2.3133    0.5191 H   0  0  0  0  0  0  0  0  0  0  0  0
   -4.3460   -1.8549   -1.9021 H   0  0  0  0  0  0  0  0  0  0  0  0
   -1.4411    1.5610    1.0990 H   0  0  0  0  0  0  0  0  0  0  0  0
   -1.5027    1.3589   -0.6229 H   0  0  0  0  0  0  0  0  0  0  0  0
    1.2454    4.8163   -1.2441 H   0  0  0  0  0  0  0  0  0  0  0  0
    1.5461    4.7763    0.4941 H   0  0  0  0  0  0  0  0  0  0  0  0
   -5.4754    0.0597   -1.8820 H   0  0  0  0  0  0  0  0  0  0  0  0
   -4.5795    2.0625   -2.6850 H   0  0  0  0  0  0  0  0  0  0  0  0
   -2.9713    1.5842   -2.3801 H   0  0  0  0  0  0  0  0  0  0  0  0
   -3.4113    2.8745    1.0647 H   0  0  0  0  0  0  0  0  0  0  0  0
   -5.0108    2.4484   -0.4267 H   0  0  0  0  0  0  0  0  0  0  0  0
    3.6689    4.7654   -0.7665 H   0  0  0  0  0  0  0  0  0  0  0  0
    3.1960    3.2901   -1.6208 H   0  0  0  0  0  0  0  0  0  0  0  0
    3.4963    3.2492    0.1284 H   0  0  0  0  0  0  0  0  0  0  0  0
    6.2157   -3.6830    2.7384 H   0  0  0  0  0  0  0  0  0  0  0  0
  1 18  1  0  0  0  0
  1 52  1  0  0  0  0
  2 18  2  0  0  0  0
  3  4  1  0  0  0  0
  3  5  1  0  0  0  0
  3 21  1  0  0  0  0
  3 22  1  0  0  0  0
  4  6  1  0  0  0  0
  4 23  1  0  0  0  0
  4 24  1  0  0  0  0
  5  7  1  0  0  0  0
  5 25  1  0  0  0  0
  5 26  1  0  0  0  0
  6  8  1  0  0  0  0
  6 27  1  0  0  0  0
  6 28  1  0  0  0  0
  7  9  1  0  0  0  0
  7 29  1  0  0  0  0
  7 30  1  0  0  0  0
  8 12  1  0  0  0  0
  8 31  1  0  0  0  0
  8 32  1  0  0  0  0
  9 18  1  0  0  0  0
  9 33  1  0  0  0  0
  9 34  1  0  0  0  0
 10 11  1  0  0  0  0
 10 13  1  0  0  0  0
 10 35  1  0  0  0  0
 10 36  1  0  0  0  0
 11 14  1  0  0  0  0
 11 37  1  0  0  0  0
 11 38  1  0  0  0  0
 12 15  2  0  0  0  0
 12 39  1  0  0  0  0
 13 17  1  0  0  0  0
 13 40  1  0  0  0  0
 13 41  1  0  0  0  0
 14 20  1  0  0  0  0
 14 42  1  0  0  0  0
 14 43  1  0  0  0  0
 15 16  1  0  0  0  0
 15 44  1  0  0  0  0
 16 19  1  0  0  0  0
 16 45  1  0  0  0  0
 16 46  1  0  0  0  0
 17 19  2  0  0  0  0
 17 47  1  0  0  0  0
 19 48  1  0  0  0  0
 20 49  1  0  0  0  0
 20 50  1  0  0  0  0
 20 51  1  0  0  0  0
M  END

> <StdInChI>
InChI=1S/C18H32O2/c1-2-3-4-5-6-7-8-9-10-11-12-13-14-15-16-17-18(19)20/h6-7,9-10H,2-5,8,11-17H2,1H3,(H,19,20)/b7-6-,10-9-

> <StdInChIKey>
OYHQOLUKZRVURQ-HZJYTTRNSA-N

> <AuxInfo>
1/1/N:20,14,11,10,13,17,19,16,15,12,8,6,4,3,5,7,9,18,1,2/E:(19,20)/rA:52nOOCCCCCCCCCCCCCCCCCCHHHHHHHHHHHHHHHHHHHHHHHHHHHHHHHH/rB:;;s3;s3;s4;s5;s6;s7;;s10;s8;s10;s11;d12;s15;s13;s1d2s9;s16d17;s14;s3;s3;s4;s4;s5;s5;s6;s6;s7;s7;s8;s8;s9;s9;s10;s10;s11;s11;s12;s13;s13;s14;s14;s15;s16;s16;s17;s19;s20;s20;s20;s1;/rC:5.6768,-4.0308,3.3413;3.7863,-4.4611,4.0884;.2672,-2.5054,.6778;-.2855,-1.8164,-.5894;1.8134,-2.5167,.7214;-1.8312,-1.8145,-.6528;2.3544,-3.2391,1.977;-2.3694,-1.2313,-1.9837;3.901,-3.2827,2.0506;-.8028,3.3074,-.0242;.6822,2.9473,-.2927;-3.8036,-1.0201,-1.9396;-1.7154,2.07,.1707;1.603,4.1867,-.4247;-4.4833,.1403,-1.9279;-3.9753,1.502,-1.9661;-3.1282,2.4023,.2348;4.4633,-3.9517,3.2068;-4.0919,2.1496,-.6699;3.0853,3.8461,-.6879;-.115,-1.9892,1.5636;-.0988,-3.5359,.7083;.0735,-.7832,-.6126;.1092,-2.3267,-1.4724;2.1815,-1.4865,.7079;2.1944,-3.018,-.1733;-2.2079,-1.236,.1972;-2.2005,-2.8388,-.5411;1.9693,-2.731,2.8662;1.9711,-4.264,1.9834;-2.1456,-1.9271,-2.7964;-1.8175,-.3257,-2.2289;4.2771,-2.2559,2.0367;4.276,-3.7848,1.1542;-1.1696,3.8987,-.8688;-.8653,3.9348,.87;.7418,2.3653,-1.2174;1.0495,2.3133,.5191;-4.346,-1.8549,-1.9021;-1.4411,1.561,1.099;-1.5027,1.3589,-.6229;1.2454,4.8163,-1.2441;1.5461,4.7763,.4941;-5.4754,.0597,-1.882;-4.5795,2.0625,-2.685;-2.9713,1.5842,-2.3801;-3.4113,2.8745,1.0647;-5.0108,2.4484,-.4267;3.6689,4.7654,-.7665;3.196,3.2901,-1.6208;3.4963,3.2492,.1284;6.2157,-3.683,2.7384;

> <Formula>
C18 H32 O2

> <Mw>
280.4455

> <SMILES>
O([H])C(C([H])([H])C([H])([H])C([H])([H])C([H])([H])C([H])([H])C([H])([H])C([H])([H])/C(/[H])=C(/[H])\C([H])([H])/C(/[H])=C(/[H])\C([H])([H])C([H])([H])C([H])([H])C([H])([H])C([H])([H])[H])=O

> <CSID>
4444105

$$$$
