REMARK  15 active torsions:
REMARK  status: ('A' for Active; 'I' for Inactive)
REMARK    1  A    between atoms: O_1  and  C_18 
REMARK    2  A    between atoms: C_3  and  C_4 
REMARK    3  A    between atoms: C_3  and  C_5 
REMARK    4  A    between atoms: C_4  and  C_6 
REMARK    5  A    between atoms: C_5  and  C_7 
REMARK    6  A    between atoms: C_6  and  C_8 
REMARK    7  A    between atoms: C_7  and  C_9 
REMARK    8  A    between atoms: C_8  and  C_12 
REMARK    9  A    between atoms: C_9  and  C_18 
REMARK   10  A    between atoms: C_10  and  C_11 
REMARK   11  A    between atoms: C_10  and  C_13 
REMARK   12  A    between atoms: C_11  and  C_14 
REMARK   13  A    between atoms: C_13  and  C_17 
REMARK   14  A    between atoms: C_15  and  C_16 
REMARK   15  A    between atoms: C_16  and  C_19 
ROOT
HETATM    1  O   UNK     0       5.677  -4.031   3.341  0.00  0.00    -0.776 OA
HETATM    2  H   UNK     0       6.216  -3.683   2.738  0.00  0.00     0.167 HD
ENDROOT
BRANCH   1   3
HETATM    3  C   UNK     0       4.463  -3.952   3.207  0.00  0.00     0.139 C 
HETATM    4  O   UNK     0       3.786  -4.461   4.088  0.00  0.00    -0.650 OA
BRANCH   3   5
HETATM    5  C   UNK     0       3.901  -3.283   2.051  0.00  0.00     0.110 C 
BRANCH   5   6
HETATM    6  C   UNK     0       2.354  -3.239   1.977  0.00  0.00     0.010 C 
BRANCH   6   7
HETATM    7  C   UNK     0       1.813  -2.517   0.721  0.00  0.00     0.001 C 
BRANCH   7   8
HETATM    8  C   UNK     0       0.267  -2.505   0.678  0.00  0.00     0.000 C 
BRANCH   8   9
HETATM    9  C   UNK     0      -0.286  -1.816  -0.589  0.00  0.00     0.000 C 
BRANCH   9  10
HETATM   10  C   UNK     0      -1.831  -1.815  -0.653  0.00  0.00     0.004 C 
BRANCH  10  11
HETATM   11  C   UNK     0      -2.369  -1.231  -1.984  0.00  0.00     0.027 C 
BRANCH  11  12
HETATM   12  C   UNK     0      -3.804  -1.020  -1.940  0.00  0.00    -0.030 C 
HETATM   13  C   UNK     0      -4.483   0.140  -1.928  0.00  0.00    -0.027 C 
BRANCH  13  14
HETATM   14  C   UNK     0      -3.975   1.502  -1.966  0.00  0.00     0.053 C 
BRANCH  14  15
HETATM   15  C   UNK     0      -4.092   2.150  -0.670  0.00  0.00    -0.027 C 
HETATM   16  C   UNK     0      -3.128   2.402   0.235  0.00  0.00    -0.030 C 
BRANCH  16  17
HETATM   17  C   UNK     0      -1.715   2.070   0.171  0.00  0.00     0.027 C 
BRANCH  17  18
HETATM   18  C   UNK     0      -0.803   3.307  -0.024  0.00  0.00     0.004 C 
BRANCH  18  19
HETATM   19  C   UNK     0       0.682   2.947  -0.293  0.00  0.00    -0.000 C 
BRANCH  19  20
HETATM   20  C   UNK     0       1.603   4.187  -0.425  0.00  0.00    -0.005 C 
HETATM   21  C   UNK     0       3.085   3.846  -0.688  0.00  0.00     0.005 C 
ENDBRANCH  19  20
ENDBRANCH  18  19
ENDBRANCH  17  18
ENDBRANCH  16  17
ENDBRANCH  14  15
ENDBRANCH  13  14
ENDBRANCH  11  12
ENDBRANCH  10  11
ENDBRANCH   9  10
ENDBRANCH   8   9
ENDBRANCH   7   8
ENDBRANCH   6   7
ENDBRANCH   5   6
ENDBRANCH   3   5
ENDBRANCH   1   3
TORSDOF 15
