MODEL 1
REMARK VINA RESULT:      -5.5      0.000      0.000
REMARK  15 active torsions:
REMARK  status: ('A' for Active; 'I' for Inactive)
REMARK    1  A    between atoms: O_1  and  C_18 
REMARK    2  A    between atoms: C_3  and  C_4 
REMARK    3  A    between atoms: C_3  and  C_5 
REMARK    4  A    between atoms: C_4  and  C_6 
REMARK    5  A    between atoms: C_5  and  C_7 
REMARK    6  A    between atoms: C_6  and  C_8 
REMARK    7  A    between atoms: C_7  and  C_9 
REMARK    8  A    between atoms: C_8  and  C_12 
REMARK    9  A    between atoms: C_9  and  C_18 
REMARK   10  A    between atoms: C_10  and  C_11 
REMARK   11  A    between atoms: C_10  and  C_13 
REMARK   12  A    between atoms: C_11  and  C_14 
REMARK   13  A    between atoms: C_13  and  C_17 
REMARK   14  A    between atoms: C_15  and  C_16 
REMARK   15  A    between atoms: C_16  and  C_19 
ROOT
HETATM    1  O   UNK     0       1.654  -0.348 -19.583  0.00  0.00    -0.776 OA
HETATM    2  H   UNK     0       1.346   0.219 -20.183  0.00  0.00     0.167 HD
ENDROOT
BRANCH   1   3
HETATM    3  C   UNK     0       1.088  -0.478 -18.506  0.00  0.00     0.139 C 
HETATM    4  O   UNK     0       1.664  -1.158 -17.670  0.00  0.00    -0.650 OA
BRANCH   3   5
HETATM    5  C   UNK     0      -0.195   0.157 -18.277  0.00  0.00     0.110 C 
BRANCH   5   6
HETATM    6  C   UNK     0      -1.325  -0.765 -17.754  0.00  0.00     0.010 C 
BRANCH   6   7
HETATM    7  C   UNK     0      -2.038  -1.566 -18.867  0.00  0.00     0.001 C 
BRANCH   7   8
HETATM    8  C   UNK     0      -2.184  -3.063 -18.505  0.00  0.00     0.000 C 
BRANCH   8   9
HETATM    9  C   UNK     0      -0.901  -3.872 -18.796  0.00  0.00     0.000 C 
BRANCH   9  10
HETATM   10  C   UNK     0      -0.100  -4.220 -17.520  0.00  0.00     0.004 C 
BRANCH  10  11
HETATM   11  C   UNK     0       1.119  -5.130 -17.814  0.00  0.00     0.027 C 
BRANCH  11  12
HETATM   12  C   UNK     0       2.373  -4.469 -17.505  0.00  0.00    -0.030 C 
HETATM   13  C   UNK     0       2.923  -4.229 -16.302  0.00  0.00    -0.027 C 
BRANCH  13  14
HETATM   14  C   UNK     0       2.423  -4.571 -14.980  0.00  0.00     0.053 C 
BRANCH  14  15
HETATM   15  C   UNK     0       3.405  -5.328 -14.220  0.00  0.00    -0.027 C 
HETATM   16  C   UNK     0       4.272  -4.886 -13.290  0.00  0.00    -0.030 C 
BRANCH  16  17
HETATM   17  C   UNK     0       4.479  -3.528 -12.816  0.00  0.00     0.027 C 
BRANCH  17  18
HETATM   18  C   UNK     0       3.174  -2.697 -12.749  0.00  0.00     0.004 C 
BRANCH  18  19
HETATM   19  C   UNK     0       2.319  -2.984 -11.487  0.00  0.00    -0.000 C 
BRANCH  19  20
HETATM   20  C   UNK     0       1.770  -1.703 -10.809  0.00  0.00    -0.005 C 
HETATM   21  C   UNK     0       1.765  -1.759  -9.266  0.00  0.00     0.005 C 
ENDBRANCH  19  20
ENDBRANCH  18  19
ENDBRANCH  17  18
ENDBRANCH  16  17
ENDBRANCH  14  15
ENDBRANCH  13  14
ENDBRANCH  11  12
ENDBRANCH  10  11
ENDBRANCH   9  10
ENDBRANCH   8   9
ENDBRANCH   7   8
ENDBRANCH   6   7
ENDBRANCH   5   6
ENDBRANCH   3   5
ENDBRANCH   1   3
TORSDOF 15
ENDMDL
MODEL 2
REMARK VINA RESULT:      -5.4      3.686      5.790
REMARK  15 active torsions:
REMARK  status: ('A' for Active; 'I' for Inactive)
REMARK    1  A    between atoms: O_1  and  C_18 
REMARK    2  A    between atoms: C_3  and  C_4 
REMARK    3  A    between atoms: C_3  and  C_5 
REMARK    4  A    between atoms: C_4  and  C_6 
REMARK    5  A    between atoms: C_5  and  C_7 
REMARK    6  A    between atoms: C_6  and  C_8 
REMARK    7  A    between atoms: C_7  and  C_9 
REMARK    8  A    between atoms: C_8  and  C_12 
REMARK    9  A    between atoms: C_9  and  C_18 
REMARK   10  A    between atoms: C_10  and  C_11 
REMARK   11  A    between atoms: C_10  and  C_13 
REMARK   12  A    between atoms: C_11  and  C_14 
REMARK   13  A    between atoms: C_13  and  C_17 
REMARK   14  A    between atoms: C_15  and  C_16 
REMARK   15  A    between atoms: C_16  and  C_19 
ROOT
HETATM    1  O   UNK     0       6.648  -3.878 -19.672  0.00  0.00    -0.776 OA
HETATM    2  H   UNK     0       6.046  -3.276 -19.895  0.00  0.00     0.167 HD
ENDROOT
BRANCH   1   3
HETATM    3  C   UNK     0       6.497  -4.566 -18.671  0.00  0.00     0.139 C 
HETATM    4  O   UNK     0       6.367  -5.768 -18.854  0.00  0.00    -0.650 OA
BRANCH   3   5
HETATM    5  C   UNK     0       6.479  -3.949 -17.361  0.00  0.00     0.110 C 
BRANCH   5   6
HETATM    6  C   UNK     0       6.097  -4.875 -16.178  0.00  0.00     0.010 C 
BRANCH   6   7
HETATM    7  C   UNK     0       6.329  -4.235 -14.789  0.00  0.00     0.001 C 
BRANCH   7   8
HETATM    8  C   UNK     0       6.089  -5.241 -13.639  0.00  0.00     0.000 C 
BRANCH   8   9
HETATM    9  C   UNK     0       5.773  -6.664 -14.151  0.00  0.00     0.000 C 
BRANCH   9  10
HETATM   10  C   UNK     0       4.541  -7.296 -13.463  0.00  0.00     0.004 C 
BRANCH  10  11
HETATM   11  C   UNK     0       3.674  -8.125 -14.444  0.00  0.00     0.027 C 
BRANCH  11  12
HETATM   12  C   UNK     0       4.133  -7.994 -15.814  0.00  0.00    -0.030 C 
HETATM   13  C   UNK     0       3.536  -7.370 -16.844  0.00  0.00    -0.027 C 
BRANCH  13  14
HETATM   14  C   UNK     0       2.275  -6.646 -16.874  0.00  0.00     0.053 C 
BRANCH  14  15
HETATM   15  C   UNK     0       2.487  -5.208 -16.871  0.00  0.00    -0.027 C 
HETATM   16  C   UNK     0       2.521  -4.364 -15.823  0.00  0.00    -0.030 C 
BRANCH  16  17
HETATM   17  C   UNK     0       2.328  -4.661 -14.413  0.00  0.00     0.027 C 
BRANCH  17  18
HETATM   18  C   UNK     0       2.824  -3.531 -13.476  0.00  0.00     0.004 C 
BRANCH  18  19
HETATM   19  C   UNK     0       2.082  -3.485 -12.114  0.00  0.00    -0.000 C 
BRANCH  19  20
HETATM   20  C   UNK     0       2.581  -2.354 -11.179  0.00  0.00    -0.005 C 
HETATM   21  C   UNK     0       1.808  -2.251  -9.847  0.00  0.00     0.005 C 
ENDBRANCH  19  20
ENDBRANCH  18  19
ENDBRANCH  17  18
ENDBRANCH  16  17
ENDBRANCH  14  15
ENDBRANCH  13  14
ENDBRANCH  11  12
ENDBRANCH  10  11
ENDBRANCH   9  10
ENDBRANCH   8   9
ENDBRANCH   7   8
ENDBRANCH   6   7
ENDBRANCH   5   6
ENDBRANCH   3   5
ENDBRANCH   1   3
TORSDOF 15
ENDMDL
MODEL 3
REMARK VINA RESULT:      -5.1      3.406      7.363
REMARK  15 active torsions:
REMARK  status: ('A' for Active; 'I' for Inactive)
REMARK    1  A    between atoms: O_1  and  C_18 
REMARK    2  A    between atoms: C_3  and  C_4 
REMARK    3  A    between atoms: C_3  and  C_5 
REMARK    4  A    between atoms: C_4  and  C_6 
REMARK    5  A    between atoms: C_5  and  C_7 
REMARK    6  A    between atoms: C_6  and  C_8 
REMARK    7  A    between atoms: C_7  and  C_9 
REMARK    8  A    between atoms: C_8  and  C_12 
REMARK    9  A    between atoms: C_9  and  C_18 
REMARK   10  A    between atoms: C_10  and  C_11 
REMARK   11  A    between atoms: C_10  and  C_13 
REMARK   12  A    between atoms: C_11  and  C_14 
REMARK   13  A    between atoms: C_13  and  C_17 
REMARK   14  A    between atoms: C_15  and  C_16 
REMARK   15  A    between atoms: C_16  and  C_19 
ROOT
HETATM    1  O   UNK     0       1.789  -4.028 -11.784  0.00  0.00    -0.776 OA
HETATM    2  H   UNK     0       1.494  -4.456 -12.494  0.00  0.00     0.167 HD
ENDROOT
BRANCH   1   3
HETATM    3  C   UNK     0       2.465  -3.015 -11.907  0.00  0.00     0.139 C 
HETATM    4  O   UNK     0       2.219  -2.102 -11.133  0.00  0.00    -0.650 OA
BRANCH   3   5
HETATM    5  C   UNK     0       3.491  -2.945 -12.927  0.00  0.00     0.110 C 
BRANCH   5   6
HETATM    6  C   UNK     0       4.431  -4.172 -13.031  0.00  0.00     0.010 C 
BRANCH   6   7
HETATM    7  C   UNK     0       5.803  -3.851 -13.669  0.00  0.00     0.001 C 
BRANCH   7   8
HETATM    8  C   UNK     0       5.806  -4.097 -15.196  0.00  0.00     0.000 C 
BRANCH   8   9
HETATM    9  C   UNK     0       6.559  -5.388 -15.587  0.00  0.00     0.000 C 
BRANCH   9  10
HETATM   10  C   UNK     0       5.701  -6.663 -15.421  0.00  0.00     0.004 C 
BRANCH  10  11
HETATM   11  C   UNK     0       4.427  -6.641 -16.304  0.00  0.00     0.027 C 
BRANCH  11  12
HETATM   12  C   UNK     0       3.218  -6.565 -15.505  0.00  0.00    -0.030 C 
HETATM   13  C   UNK     0       2.251  -5.632 -15.532  0.00  0.00    -0.027 C 
BRANCH  13  14
HETATM   14  C   UNK     0       2.138  -4.449 -16.370  0.00  0.00     0.053 C 
BRANCH  14  15
HETATM   15  C   UNK     0       0.866  -4.414 -17.073  0.00  0.00    -0.027 C 
HETATM   16  C   UNK     0       0.561  -4.911 -18.286  0.00  0.00    -0.030 C 
BRANCH  16  17
HETATM   17  C   UNK     0       1.428  -5.594 -19.230  0.00  0.00     0.027 C 
BRANCH  17  18
HETATM   18  C   UNK     0       1.068  -7.089 -19.423  0.00  0.00     0.004 C 
BRANCH  18  19
HETATM   19  C   UNK     0       2.086  -8.062 -18.772  0.00  0.00    -0.000 C 
BRANCH  19  20
HETATM   20  C   UNK     0       1.462  -8.968 -17.680  0.00  0.00    -0.005 C 
HETATM   21  C   UNK     0       2.463  -9.936 -17.017  0.00  0.00     0.005 C 
ENDBRANCH  19  20
ENDBRANCH  18  19
ENDBRANCH  17  18
ENDBRANCH  16  17
ENDBRANCH  14  15
ENDBRANCH  13  14
ENDBRANCH  11  12
ENDBRANCH  10  11
ENDBRANCH   9  10
ENDBRANCH   8   9
ENDBRANCH   7   8
ENDBRANCH   6   7
ENDBRANCH   5   6
ENDBRANCH   3   5
ENDBRANCH   1   3
TORSDOF 15
ENDMDL
MODEL 4
REMARK VINA RESULT:      -4.9      2.839      7.019
REMARK  15 active torsions:
REMARK  status: ('A' for Active; 'I' for Inactive)
REMARK    1  A    between atoms: O_1  and  C_18 
REMARK    2  A    between atoms: C_3  and  C_4 
REMARK    3  A    between atoms: C_3  and  C_5 
REMARK    4  A    between atoms: C_4  and  C_6 
REMARK    5  A    between atoms: C_5  and  C_7 
REMARK    6  A    between atoms: C_6  and  C_8 
REMARK    7  A    between atoms: C_7  and  C_9 
REMARK    8  A    between atoms: C_8  and  C_12 
REMARK    9  A    between atoms: C_9  and  C_18 
REMARK   10  A    between atoms: C_10  and  C_11 
REMARK   11  A    between atoms: C_10  and  C_13 
REMARK   12  A    between atoms: C_11  and  C_14 
REMARK   13  A    between atoms: C_13  and  C_17 
REMARK   14  A    between atoms: C_15  and  C_16 
REMARK   15  A    between atoms: C_16  and  C_19 
ROOT
HETATM    1  O   UNK     0       1.528  -3.726 -11.902  0.00  0.00    -0.776 OA
HETATM    2  H   UNK     0       1.398  -4.125 -12.676  0.00  0.00     0.167 HD
ENDROOT
BRANCH   1   3
HETATM    3  C   UNK     0       2.377  -2.851 -11.790  0.00  0.00     0.139 C 
HETATM    4  O   UNK     0       2.122  -1.945 -11.010  0.00  0.00    -0.650 OA
BRANCH   3   5
HETATM    5  C   UNK     0       3.603  -2.924 -12.559  0.00  0.00     0.110 C 
BRANCH   5   6
HETATM    6  C   UNK     0       3.969  -4.320 -13.122  0.00  0.00     0.010 C 
BRANCH   6   7
HETATM    7  C   UNK     0       5.449  -4.448 -13.551  0.00  0.00     0.001 C 
BRANCH   7   8
HETATM    8  C   UNK     0       5.603  -5.205 -14.891  0.00  0.00     0.000 C 
BRANCH   8   9
HETATM    9  C   UNK     0       5.447  -6.733 -14.730  0.00  0.00     0.000 C 
BRANCH   9  10
HETATM   10  C   UNK     0       4.011  -7.229 -15.016  0.00  0.00     0.004 C 
BRANCH  10  11
HETATM   11  C   UNK     0       3.418  -6.615 -16.309  0.00  0.00     0.027 C 
BRANCH  11  12
HETATM   12  C   UNK     0       2.214  -5.850 -16.040  0.00  0.00    -0.030 C 
HETATM   13  C   UNK     0       1.988  -4.540 -16.242  0.00  0.00    -0.027 C 
BRANCH  13  14
HETATM   14  C   UNK     0       2.876  -3.529 -16.792  0.00  0.00     0.053 C 
BRANCH  14  15
HETATM   15  C   UNK     0       2.131  -2.461 -17.439  0.00  0.00    -0.027 C 
HETATM   16  C   UNK     0       0.965  -2.534 -18.106  0.00  0.00    -0.030 C 
BRANCH  16  17
HETATM   17  C   UNK     0       0.149  -3.704 -18.382  0.00  0.00     0.027 C 
BRANCH  17  18
HETATM   18  C   UNK     0      -1.350  -3.499 -18.051  0.00  0.00     0.004 C 
BRANCH  18  19
HETATM   19  C   UNK     0      -2.016  -4.736 -17.394  0.00  0.00    -0.000 C 
BRANCH  19  20
HETATM   20  C   UNK     0      -1.162  -6.026 -17.501  0.00  0.00    -0.005 C 
HETATM   21  C   UNK     0      -1.854  -7.177 -18.261  0.00  0.00     0.005 C 
ENDBRANCH  19  20
ENDBRANCH  18  19
ENDBRANCH  17  18
ENDBRANCH  16  17
ENDBRANCH  14  15
ENDBRANCH  13  14
ENDBRANCH  11  12
ENDBRANCH  10  11
ENDBRANCH   9  10
ENDBRANCH   8   9
ENDBRANCH   7   8
ENDBRANCH   6   7
ENDBRANCH   5   6
ENDBRANCH   3   5
ENDBRANCH   1   3
TORSDOF 15
ENDMDL
MODEL 5
REMARK VINA RESULT:      -4.8      4.097      5.481
REMARK  15 active torsions:
REMARK  status: ('A' for Active; 'I' for Inactive)
REMARK    1  A    between atoms: O_1  and  C_18 
REMARK    2  A    between atoms: C_3  and  C_4 
REMARK    3  A    between atoms: C_3  and  C_5 
REMARK    4  A    between atoms: C_4  and  C_6 
REMARK    5  A    between atoms: C_5  and  C_7 
REMARK    6  A    between atoms: C_6  and  C_8 
REMARK    7  A    between atoms: C_7  and  C_9 
REMARK    8  A    between atoms: C_8  and  C_12 
REMARK    9  A    between atoms: C_9  and  C_18 
REMARK   10  A    between atoms: C_10  and  C_11 
REMARK   11  A    between atoms: C_10  and  C_13 
REMARK   12  A    between atoms: C_11  and  C_14 
REMARK   13  A    between atoms: C_13  and  C_17 
REMARK   14  A    between atoms: C_15  and  C_16 
REMARK   15  A    between atoms: C_16  and  C_19 
ROOT
HETATM    1  O   UNK     0       3.294  -8.930 -19.385  0.00  0.00    -0.776 OA
HETATM    2  H   UNK     0       4.033  -9.403 -19.465  0.00  0.00     0.167 HD
ENDROOT
BRANCH   1   3
HETATM    3  C   UNK     0       2.530  -9.127 -18.449  0.00  0.00     0.139 C 
HETATM    4  O   UNK     0       1.345  -9.229 -18.729  0.00  0.00    -0.650 OA
BRANCH   3   5
HETATM    5  C   UNK     0       3.046  -9.227 -17.098  0.00  0.00     0.110 C 
BRANCH   5   6
HETATM    6  C   UNK     0       3.803  -7.984 -16.567  0.00  0.00     0.010 C 
BRANCH   6   7
HETATM    7  C   UNK     0       3.314  -6.651 -17.178  0.00  0.00     0.001 C 
BRANCH   7   8
HETATM    8  C   UNK     0       2.341  -5.902 -16.237  0.00  0.00     0.000 C 
BRANCH   8   9
HETATM    9  C   UNK     0       2.564  -4.374 -16.247  0.00  0.00     0.000 C 
BRANCH   9  10
HETATM   10  C   UNK     0       3.710  -3.934 -17.188  0.00  0.00     0.004 C 
BRANCH  10  11
HETATM   11  C   UNK     0       4.799  -3.114 -16.453  0.00  0.00     0.027 C 
BRANCH  11  12
HETATM   12  C   UNK     0       6.033  -3.863 -16.307  0.00  0.00    -0.030 C 
HETATM   13  C   UNK     0       6.403  -4.689 -15.314  0.00  0.00    -0.027 C 
BRANCH  13  14
HETATM   14  C   UNK     0       5.671  -5.071 -14.117  0.00  0.00     0.053 C 
BRANCH  14  15
HETATM   15  C   UNK     0       5.431  -3.927 -13.252  0.00  0.00    -0.027 C 
HETATM   16  C   UNK     0       4.264  -3.482 -12.751  0.00  0.00    -0.030 C 
BRANCH  16  17
HETATM   17  C   UNK     0       2.926  -4.008 -12.961  0.00  0.00     0.027 C 
BRANCH  17  18
HETATM   18  C   UNK     0       1.917  -3.570 -11.871  0.00  0.00     0.004 C 
BRANCH  18  19
HETATM   19  C   UNK     0       2.080  -2.090 -11.433  0.00  0.00    -0.000 C 
BRANCH  19  20
HETATM   20  C   UNK     0       2.537  -1.930  -9.960  0.00  0.00    -0.005 C 
HETATM   21  C   UNK     0       1.376  -1.854  -8.945  0.00  0.00     0.005 C 
ENDBRANCH  19  20
ENDBRANCH  18  19
ENDBRANCH  17  18
ENDBRANCH  16  17
ENDBRANCH  14  15
ENDBRANCH  13  14
ENDBRANCH  11  12
ENDBRANCH  10  11
ENDBRANCH   9  10
ENDBRANCH   8   9
ENDBRANCH   7   8
ENDBRANCH   6   7
ENDBRANCH   5   6
ENDBRANCH   3   5
ENDBRANCH   1   3
TORSDOF 15
ENDMDL
MODEL 6
REMARK VINA RESULT:      -4.8      2.276      4.925
REMARK  15 active torsions:
REMARK  status: ('A' for Active; 'I' for Inactive)
REMARK    1  A    between atoms: O_1  and  C_18 
REMARK    2  A    between atoms: C_3  and  C_4 
REMARK    3  A    between atoms: C_3  and  C_5 
REMARK    4  A    between atoms: C_4  and  C_6 
REMARK    5  A    between atoms: C_5  and  C_7 
REMARK    6  A    between atoms: C_6  and  C_8 
REMARK    7  A    between atoms: C_7  and  C_9 
REMARK    8  A    between atoms: C_8  and  C_12 
REMARK    9  A    between atoms: C_9  and  C_18 
REMARK   10  A    between atoms: C_10  and  C_11 
REMARK   11  A    between atoms: C_10  and  C_13 
REMARK   12  A    between atoms: C_11  and  C_14 
REMARK   13  A    between atoms: C_13  and  C_17 
REMARK   14  A    between atoms: C_15  and  C_16 
REMARK   15  A    between atoms: C_16  and  C_19 
ROOT
HETATM    1  O   UNK     0       1.367   1.348 -19.617  0.00  0.00    -0.776 OA
HETATM    2  H   UNK     0       1.541   1.714 -20.398  0.00  0.00     0.167 HD
ENDROOT
BRANCH   1   3
HETATM    3  C   UNK     0       0.500   0.490 -19.514  0.00  0.00     0.139 C 
HETATM    4  O   UNK     0      -0.407   0.533 -20.332  0.00  0.00    -0.650 OA
BRANCH   3   5
HETATM    5  C   UNK     0       0.583  -0.505 -18.463  0.00  0.00     0.110 C 
BRANCH   5   6
HETATM    6  C   UNK     0      -0.337  -1.742 -18.624  0.00  0.00     0.010 C 
BRANCH   6   7
HETATM    7  C   UNK     0       0.342  -3.075 -18.234  0.00  0.00     0.001 C 
BRANCH   7   8
HETATM    8  C   UNK     0       1.779  -2.862 -17.703  0.00  0.00     0.000 C 
BRANCH   8   9
HETATM    9  C   UNK     0       2.193  -3.930 -16.666  0.00  0.00     0.000 C 
BRANCH   9  10
HETATM   10  C   UNK     0       3.045  -3.355 -15.511  0.00  0.00     0.004 C 
BRANCH  10  11
HETATM   11  C   UNK     0       2.828  -4.116 -14.178  0.00  0.00     0.027 C 
BRANCH  11  12
HETATM   12  C   UNK     0       3.663  -3.591 -13.114  0.00  0.00    -0.030 C 
HETATM   13  C   UNK     0       5.003  -3.610 -13.011  0.00  0.00    -0.027 C 
BRANCH  13  14
HETATM   14  C   UNK     0       5.988  -4.150 -13.935  0.00  0.00     0.053 C 
BRANCH  14  15
HETATM   15  C   UNK     0       6.229  -5.562 -13.691  0.00  0.00    -0.027 C 
HETATM   16  C   UNK     0       5.807  -6.623 -14.405  0.00  0.00    -0.030 C 
BRANCH  16  17
HETATM   17  C   UNK     0       4.976  -6.642 -15.596  0.00  0.00     0.027 C 
BRANCH  17  18
HETATM   18  C   UNK     0       3.957  -7.808 -15.614  0.00  0.00     0.004 C 
BRANCH  18  19
HETATM   19  C   UNK     0       2.740  -7.556 -16.543  0.00  0.00    -0.000 C 
BRANCH  19  20
HETATM   20  C   UNK     0       2.555  -8.647 -17.628  0.00  0.00    -0.005 C 
HETATM   21  C   UNK     0       2.400 -10.076 -17.065  0.00  0.00     0.005 C 
ENDBRANCH  19  20
ENDBRANCH  18  19
ENDBRANCH  17  18
ENDBRANCH  16  17
ENDBRANCH  14  15
ENDBRANCH  13  14
ENDBRANCH  11  12
ENDBRANCH  10  11
ENDBRANCH   9  10
ENDBRANCH   8   9
ENDBRANCH   7   8
ENDBRANCH   6   7
ENDBRANCH   5   6
ENDBRANCH   3   5
ENDBRANCH   1   3
TORSDOF 15
ENDMDL
MODEL 7
REMARK VINA RESULT:      -4.8      3.547      7.561
REMARK  15 active torsions:
REMARK  status: ('A' for Active; 'I' for Inactive)
REMARK    1  A    between atoms: O_1  and  C_18 
REMARK    2  A    between atoms: C_3  and  C_4 
REMARK    3  A    between atoms: C_3  and  C_5 
REMARK    4  A    between atoms: C_4  and  C_6 
REMARK    5  A    between atoms: C_5  and  C_7 
REMARK    6  A    between atoms: C_6  and  C_8 
REMARK    7  A    between atoms: C_7  and  C_9 
REMARK    8  A    between atoms: C_8  and  C_12 
REMARK    9  A    between atoms: C_9  and  C_18 
REMARK   10  A    between atoms: C_10  and  C_11 
REMARK   11  A    between atoms: C_10  and  C_13 
REMARK   12  A    between atoms: C_11  and  C_14 
REMARK   13  A    between atoms: C_13  and  C_17 
REMARK   14  A    between atoms: C_15  and  C_16 
REMARK   15  A    between atoms: C_16  and  C_19 
ROOT
HETATM    1  O   UNK     0       3.096  -9.141 -15.368  0.00  0.00    -0.776 OA
HETATM    2  H   UNK     0       3.225  -9.089 -16.238  0.00  0.00     0.167 HD
ENDROOT
BRANCH   1   3
HETATM    3  C   UNK     0       3.519  -8.266 -14.625  0.00  0.00     0.139 C 
HETATM    4  O   UNK     0       3.770  -8.603 -13.478  0.00  0.00    -0.650 OA
BRANCH   3   5
HETATM    5  C   UNK     0       3.698  -6.916 -15.120  0.00  0.00     0.110 C 
BRANCH   5   6
HETATM    6  C   UNK     0       4.856  -6.106 -14.484  0.00  0.00     0.010 C 
BRANCH   6   7
HETATM    7  C   UNK     0       4.383  -5.037 -13.472  0.00  0.00     0.001 C 
BRANCH   7   8
HETATM    8  C   UNK     0       3.345  -4.071 -14.090  0.00  0.00     0.000 C 
BRANCH   8   9
HETATM    9  C   UNK     0       3.949  -3.178 -15.196  0.00  0.00     0.000 C 
BRANCH   9  10
HETATM   10  C   UNK     0       2.939  -2.835 -16.316  0.00  0.00     0.004 C 
BRANCH  10  11
HETATM   11  C   UNK     0       3.327  -3.466 -17.678  0.00  0.00     0.027 C 
BRANCH  11  12
HETATM   12  C   UNK     0       2.692  -4.756 -17.875  0.00  0.00    -0.030 C 
HETATM   13  C   UNK     0       1.392  -5.078 -17.769  0.00  0.00    -0.027 C 
BRANCH  13  14
HETATM   14  C   UNK     0       0.259  -4.227 -17.438  0.00  0.00     0.053 C 
BRANCH  14  15
HETATM   15  C   UNK     0      -0.268  -3.561 -18.618  0.00  0.00    -0.027 C 
HETATM   16  C   UNK     0      -0.180  -2.263 -18.961  0.00  0.00    -0.030 C 
BRANCH  16  17
HETATM   17  C   UNK     0       0.445  -1.172 -18.231  0.00  0.00     0.027 C 
BRANCH  17  18
HETATM   18  C   UNK     0      -0.254   0.192 -18.452  0.00  0.00     0.004 C 
BRANCH  18  19
HETATM   19  C   UNK     0      -0.510   0.524 -19.946  0.00  0.00    -0.000 C 
BRANCH  19  20
HETATM   20  C   UNK     0      -2.007   0.749 -20.280  0.00  0.00    -0.005 C 
HETATM   21  C   UNK     0      -2.847   1.263 -19.092  0.00  0.00     0.005 C 
ENDBRANCH  19  20
ENDBRANCH  18  19
ENDBRANCH  17  18
ENDBRANCH  16  17
ENDBRANCH  14  15
ENDBRANCH  13  14
ENDBRANCH  11  12
ENDBRANCH  10  11
ENDBRANCH   9  10
ENDBRANCH   8   9
ENDBRANCH   7   8
ENDBRANCH   6   7
ENDBRANCH   5   6
ENDBRANCH   3   5
ENDBRANCH   1   3
TORSDOF 15
ENDMDL
MODEL 8
REMARK VINA RESULT:      -4.7      4.165      6.836
REMARK  15 active torsions:
REMARK  status: ('A' for Active; 'I' for Inactive)
REMARK    1  A    between atoms: O_1  and  C_18 
REMARK    2  A    between atoms: C_3  and  C_4 
REMARK    3  A    between atoms: C_3  and  C_5 
REMARK    4  A    between atoms: C_4  and  C_6 
REMARK    5  A    between atoms: C_5  and  C_7 
REMARK    6  A    between atoms: C_6  and  C_8 
REMARK    7  A    between atoms: C_7  and  C_9 
REMARK    8  A    between atoms: C_8  and  C_12 
REMARK    9  A    between atoms: C_9  and  C_18 
REMARK   10  A    between atoms: C_10  and  C_11 
REMARK   11  A    between atoms: C_10  and  C_13 
REMARK   12  A    between atoms: C_11  and  C_14 
REMARK   13  A    between atoms: C_13  and  C_17 
REMARK   14  A    between atoms: C_15  and  C_16 
REMARK   15  A    between atoms: C_16  and  C_19 
ROOT
HETATM    1  O   UNK     0       1.681  -2.797  -9.136  0.00  0.00    -0.776 OA
HETATM    2  H   UNK     0       0.975  -2.940  -8.629  0.00  0.00     0.167 HD
ENDROOT
BRANCH   1   3
HETATM    3  C   UNK     0       1.677  -1.897  -9.965  0.00  0.00     0.139 C 
HETATM    4  O   UNK     0       1.049  -0.891  -9.669  0.00  0.00    -0.650 OA
BRANCH   3   5
HETATM    5  C   UNK     0       2.391  -2.057 -11.215  0.00  0.00     0.110 C 
BRANCH   5   6
HETATM    6  C   UNK     0       2.173  -3.400 -11.956  0.00  0.00     0.010 C 
BRANCH   6   7
HETATM    7  C   UNK     0       3.078  -3.579 -13.196  0.00  0.00     0.001 C 
BRANCH   7   8
HETATM    8  C   UNK     0       3.533  -5.047 -13.377  0.00  0.00     0.000 C 
BRANCH   8   9
HETATM    9  C   UNK     0       2.896  -5.718 -14.613  0.00  0.00     0.000 C 
BRANCH   9  10
HETATM   10  C   UNK     0       2.309  -4.701 -15.619  0.00  0.00     0.004 C 
BRANCH  10  11
HETATM   11  C   UNK     0       2.703  -5.021 -17.084  0.00  0.00     0.027 C 
BRANCH  11  12
HETATM   12  C   UNK     0       3.416  -3.919 -17.703  0.00  0.00    -0.030 C 
HETATM   13  C   UNK     0       4.727  -3.629 -17.648  0.00  0.00    -0.027 C 
BRANCH  13  14
HETATM   14  C   UNK     0       5.797  -4.338 -16.964  0.00  0.00     0.053 C 
BRANCH  14  15
HETATM   15  C   UNK     0       6.125  -3.711 -15.694  0.00  0.00    -0.027 C 
HETATM   16  C   UNK     0       6.614  -4.278 -14.576  0.00  0.00    -0.030 C 
BRANCH  16  17
HETATM   17  C   UNK     0       6.921  -5.677 -14.329  0.00  0.00     0.027 C 
BRANCH  17  18
HETATM   18  C   UNK     0       8.439  -5.983 -14.345  0.00  0.00     0.004 C 
BRANCH  18  19
HETATM   19  C   UNK     0       9.062  -5.960 -15.766  0.00  0.00    -0.000 C 
BRANCH  19  20
HETATM   20  C   UNK     0      10.288  -5.020 -15.887  0.00  0.00    -0.005 C 
HETATM   21  C   UNK     0       9.929  -3.520 -15.949  0.00  0.00     0.005 C 
ENDBRANCH  19  20
ENDBRANCH  18  19
ENDBRANCH  17  18
ENDBRANCH  16  17
ENDBRANCH  14  15
ENDBRANCH  13  14
ENDBRANCH  11  12
ENDBRANCH  10  11
ENDBRANCH   9  10
ENDBRANCH   8   9
ENDBRANCH   7   8
ENDBRANCH   6   7
ENDBRANCH   5   6
ENDBRANCH   3   5
ENDBRANCH   1   3
TORSDOF 15
ENDMDL
MODEL 9
REMARK VINA RESULT:      -4.7      3.054      7.849
REMARK  15 active torsions:
REMARK  status: ('A' for Active; 'I' for Inactive)
REMARK    1  A    between atoms: O_1  and  C_18 
REMARK    2  A    between atoms: C_3  and  C_4 
REMARK    3  A    between atoms: C_3  and  C_5 
REMARK    4  A    between atoms: C_4  and  C_6 
REMARK    5  A    between atoms: C_5  and  C_7 
REMARK    6  A    between atoms: C_6  and  C_8 
REMARK    7  A    between atoms: C_7  and  C_9 
REMARK    8  A    between atoms: C_8  and  C_12 
REMARK    9  A    between atoms: C_9  and  C_18 
REMARK   10  A    between atoms: C_10  and  C_11 
REMARK   11  A    between atoms: C_10  and  C_13 
REMARK   12  A    between atoms: C_11  and  C_14 
REMARK   13  A    between atoms: C_13  and  C_17 
REMARK   14  A    between atoms: C_15  and  C_16 
REMARK   15  A    between atoms: C_16  and  C_19 
ROOT
HETATM    1  O   UNK     0       1.680  -2.719  -8.958  0.00  0.00    -0.776 OA
HETATM    2  H   UNK     0       0.955  -2.891  -8.489  0.00  0.00     0.167 HD
ENDROOT
BRANCH   1   3
HETATM    3  C   UNK     0       1.660  -1.877  -9.845  0.00  0.00     0.139 C 
HETATM    4  O   UNK     0       0.883  -0.946  -9.692  0.00  0.00    -0.650 OA
BRANCH   3   5
HETATM    5  C   UNK     0       2.526  -2.014 -10.999  0.00  0.00     0.110 C 
BRANCH   5   6
HETATM    6  C   UNK     0       2.235  -3.221 -11.927  0.00  0.00     0.010 C 
BRANCH   6   7
HETATM    7  C   UNK     0       3.309  -3.437 -13.018  0.00  0.00     0.001 C 
BRANCH   7   8
HETATM    8  C   UNK     0       3.342  -4.900 -13.519  0.00  0.00     0.000 C 
BRANCH   8   9
HETATM    9  C   UNK     0       3.195  -5.006 -15.053  0.00  0.00     0.000 C 
BRANCH   9  10
HETATM   10  C   UNK     0       1.721  -5.090 -15.516  0.00  0.00     0.004 C 
BRANCH  10  11
HETATM   11  C   UNK     0       1.581  -5.679 -16.942  0.00  0.00     0.027 C 
BRANCH  11  12
HETATM   12  C   UNK     0       0.208  -5.633 -17.412  0.00  0.00    -0.030 C 
HETATM   13  C   UNK     0      -0.498  -4.572 -17.840  0.00  0.00    -0.027 C 
BRANCH  13  14
HETATM   14  C   UNK     0      -0.086  -3.183 -17.961  0.00  0.00     0.053 C 
BRANCH  14  15
HETATM   15  C   UNK     0      -0.633  -2.569 -19.160  0.00  0.00    -0.027 C 
HETATM   16  C   UNK     0      -0.883  -1.268 -19.400  0.00  0.00    -0.030 C 
BRANCH  16  17
HETATM   17  C   UNK     0      -0.698  -0.131 -18.515  0.00  0.00     0.027 C 
BRANCH  17  18
HETATM   18  C   UNK     0      -1.955   0.768 -18.400  0.00  0.00     0.004 C 
BRANCH  18  19
HETATM   19  C   UNK     0      -2.583   1.135 -19.771  0.00  0.00    -0.000 C 
BRANCH  19  20
HETATM   20  C   UNK     0      -4.119   0.932 -19.819  0.00  0.00    -0.005 C 
HETATM   21  C   UNK     0      -4.561  -0.546 -19.763  0.00  0.00     0.005 C 
ENDBRANCH  19  20
ENDBRANCH  18  19
ENDBRANCH  17  18
ENDBRANCH  16  17
ENDBRANCH  14  15
ENDBRANCH  13  14
ENDBRANCH  11  12
ENDBRANCH  10  11
ENDBRANCH   9  10
ENDBRANCH   8   9
ENDBRANCH   7   8
ENDBRANCH   6   7
ENDBRANCH   5   6
ENDBRANCH   3   5
ENDBRANCH   1   3
TORSDOF 15
ENDMDL
